 xtb: 6.7.1 (edcfbbe)
          07072619433D

 39 38  0     0  0            999 V2000
   -0.7357   -2.2809   -2.4927 C   0  0  0  0  0  0  0  0  0  0  0  0
    0.3722   -1.3189   -2.1116 C   0  0  0  0  0  0  0  0  0  0  0  0
    1.3622   -1.1842   -2.8066 O   0  0  0  0  0  0  0  0  0  0  0  0
    0.2145   -0.6261   -0.9572 N   0  0  0  0  0  0  0  0  0  0  0  0
   -0.9440   -0.7001   -0.0960 C   0  0  0  0  0  0  0  0  0  0  0  0
   -2.0018    0.3494   -0.4639 C   0  0  0  0  0  0  0  0  0  0  0  0
   -3.3286    0.1599    0.2782 C   0  0  0  0  0  0  0  0  0  0  0  0
   -3.1672    0.3578    1.7838 C   0  0  0  0  0  0  0  0  0  0  0  0
   -4.3680    1.1376   -0.2676 C   0  0  0  0  0  0  0  0  0  0  0  0
    1.2606    0.3023   -0.5649 C   0  0  0  0  0  0  0  0  0  0  0  0
    2.2546   -0.3467    0.4010 C   0  0  0  0  0  0  0  0  0  0  0  0
    3.4457    0.5548    0.7394 C   0  0  0  0  0  0  0  0  0  0  0  0
    3.0197    1.7768    1.5506 C   0  0  0  0  0  0  0  0  0  0  0  0
    4.4931   -0.2436    1.5138 C   0  0  0  0  0  0  0  0  0  0  0  0
   -0.7885   -3.0997   -1.7777 H   0  0  0  0  0  0  0  0  0  0  0  0
   -0.4991   -2.6892   -3.4715 H   0  0  0  0  0  0  0  0  0  0  0  0
   -1.7003   -1.7833   -2.5361 H   0  0  0  0  0  0  0  0  0  0  0  0
   -0.6042   -0.5396    0.9296 H   0  0  0  0  0  0  0  0  0  0  0  0
   -1.3842   -1.6972   -0.1481 H   0  0  0  0  0  0  0  0  0  0  0  0
   -1.6119    1.3474   -0.2533 H   0  0  0  0  0  0  0  0  0  0  0  0
   -2.1858    0.2939   -1.5391 H   0  0  0  0  0  0  0  0  0  0  0  0
   -3.6847   -0.8611    0.0972 H   0  0  0  0  0  0  0  0  0  0  0  0
   -4.1341    0.2891    2.2768 H   0  0  0  0  0  0  0  0  0  0  0  0
   -2.7466    1.3390    1.9940 H   0  0  0  0  0  0  0  0  0  0  0  0
   -2.5165   -0.3988    2.2140 H   0  0  0  0  0  0  0  0  0  0  0  0
   -4.5119    0.9928   -1.3359 H   0  0  0  0  0  0  0  0  0  0  0  0
   -5.3249    0.9942    0.2287 H   0  0  0  0  0  0  0  0  0  0  0  0
   -4.0465    2.1635   -0.1011 H   0  0  0  0  0  0  0  0  0  0  0  0
    1.7880    0.6017   -1.4736 H   0  0  0  0  0  0  0  0  0  0  0  0
    0.7928    1.1800   -0.1155 H   0  0  0  0  0  0  0  0  0  0  0  0
    2.6247   -1.2585   -0.0723 H   0  0  0  0  0  0  0  0  0  0  0  0
    1.7437   -0.6314    1.3247 H   0  0  0  0  0  0  0  0  0  0  0  0
    3.8942    0.8963   -0.1995 H   0  0  0  0  0  0  0  0  0  0  0  0
    2.5149    1.4692    2.4645 H   0  0  0  0  0  0  0  0  0  0  0  0
    2.3493    2.4148    0.9809 H   0  0  0  0  0  0  0  0  0  0  0  0
    3.8909    2.3671    1.8255 H   0  0  0  0  0  0  0  0  0  0  0  0
    4.8296   -1.0992    0.9333 H   0  0  0  0  0  0  0  0  0  0  0  0
    5.3567    0.3774    1.7401 H   0  0  0  0  0  0  0  0  0  0  0  0
    4.0771   -0.6065    2.4517 H   0  0  0  0  0  0  0  0  0  0  0  0
  1  2  1  0  0  0  0
  2  3  2  0  0  0  0
  2  4  4  0  0  0  0
  4  5  1  0  0  0  0
  5  6  1  0  0  0  0
  6  7  1  0  0  0  0
  7  8  1  0  0  0  0
  7  9  1  0  0  0  0
  4 10  1  0  0  0  0
 10 11  1  0  0  0  0
 11 12  1  0  0  0  0
 12 13  1  0  0  0  0
 12 14  1  0  0  0  0
  1 15  1  0  0  0  0
  1 16  1  0  0  0  0
  1 17  1  0  0  0  0
  5 18  1  0  0  0  0
  5 19  1  0  0  0  0
  6 20  1  0  0  0  0
  6 21  1  0  0  0  0
  7 22  1  0  0  0  0
  8 23  1  0  0  0  0
  8 24  1  0  0  0  0
  8 25  1  0  0  0  0
  9 26  1  0  0  0  0
  9 27  1  0  0  0  0
  9 28  1  0  0  0  0
 10 29  1  0  0  0  0
 10 30  1  0  0  0  0
 11 31  1  0  0  0  0
 11 32  1  0  0  0  0
 12 33  1  0  0  0  0
 13 34  1  0  0  0  0
 13 35  1  0  0  0  0
 13 36  1  0  0  0  0
 14 37  1  0  0  0  0
 14 38  1  0  0  0  0
 14 39  1  0  0  0  0
M  END
