 xtb: 6.7.1 (edcfbbe)
          07072608433D

 34 34  0     0  0            999 V2000
    4.5430   -1.0954   -0.7931 C   0  0  0  0  0  0  0  0  0  0  0  0
    3.6436   -0.1809    0.0244 C   0  0  0  0  0  0  0  0  0  0  0  0
    3.8662    1.2920   -0.3007 C   0  0  0  0  0  0  0  0  0  0  0  0
    2.2833   -0.5392   -0.2855 O   0  0  0  0  0  0  0  0  0  0  0  0
    1.3564   -0.3242    0.6381 C   0  0  0  0  0  0  0  0  0  0  0  0
    1.5791    0.1543    1.7271 O   0  0  0  0  0  0  0  0  0  0  0  0
   -0.0106   -0.7429    0.1574 C   0  0  0  0  0  0  0  0  0  0  0  0
   -1.0567    0.3735    0.4332 C   0  0  0  0  0  0  0  0  0  0  0  0
   -0.6159    1.6889   -0.2328 C   0  0  0  0  0  0  0  0  0  0  0  0
   -1.1860    0.5589    1.8223 O   0  0  0  0  0  0  0  0  0  0  0  0
   -2.3990   -0.0673   -0.1289 C   0  0  0  0  0  0  0  0  0  0  0  0
   -2.5629   -0.2799   -1.4929 C   0  0  0  0  0  0  0  0  0  0  0  0
   -3.7858   -0.6804   -1.9991 C   0  0  0  0  0  0  0  0  0  0  0  0
   -4.8624   -0.8752   -1.1504 C   0  0  0  0  0  0  0  0  0  0  0  0
   -4.7064   -0.6652    0.2079 C   0  0  0  0  0  0  0  0  0  0  0  0
   -3.4826   -0.2646    0.7150 C   0  0  0  0  0  0  0  0  0  0  0  0
    5.5841   -0.8831   -0.5687 H   0  0  0  0  0  0  0  0  0  0  0  0
    4.3359   -2.1363   -0.5588 H   0  0  0  0  0  0  0  0  0  0  0  0
    4.3671   -0.9359   -1.8537 H   0  0  0  0  0  0  0  0  0  0  0  0
    3.7965   -0.3467    1.0987 H   0  0  0  0  0  0  0  0  0  0  0  0
    4.8990    1.5615   -0.1000 H   0  0  0  0  0  0  0  0  0  0  0  0
    3.6458    1.4794   -1.3492 H   0  0  0  0  0  0  0  0  0  0  0  0
    3.2187    1.9130    0.3137 H   0  0  0  0  0  0  0  0  0  0  0  0
   -0.3166   -1.6281    0.7206 H   0  0  0  0  0  0  0  0  0  0  0  0
    0.0389   -0.9927   -0.9003 H   0  0  0  0  0  0  0  0  0  0  0  0
   -1.3936    2.4364   -0.0957 H   0  0  0  0  0  0  0  0  0  0  0  0
    0.2973    2.0536    0.2338 H   0  0  0  0  0  0  0  0  0  0  0  0
   -0.4382    1.5536   -1.2954 H   0  0  0  0  0  0  0  0  0  0  0  0
   -0.2916    0.6455    2.1891 H   0  0  0  0  0  0  0  0  0  0  0  0
   -1.7365   -0.1327   -2.1729 H   0  0  0  0  0  0  0  0  0  0  0  0
   -3.8986   -0.8410   -3.0616 H   0  0  0  0  0  0  0  0  0  0  0  0
   -5.8166   -1.1883   -1.5481 H   0  0  0  0  0  0  0  0  0  0  0  0
   -5.5404   -0.8139    0.8781 H   0  0  0  0  0  0  0  0  0  0  0  0
   -3.3546   -0.0965    1.7719 H   0  0  0  0  0  0  0  0  0  0  0  0
  1  2  1  0  0  0  0
  2  3  1  0  0  0  0
  2  4  1  0  0  0  0
  4  5  1  0  0  0  0
  5  6  2  0  0  0  0
  5  7  1  0  0  0  0
  7  8  1  0  0  0  0
  8  9  1  0  0  0  0
  8 10  1  0  0  0  0
  8 11  1  0  0  0  0
 11 12  4  0  0  0  0
 12 13  4  0  0  0  0
 13 14  4  0  0  0  0
 14 15  4  0  0  0  0
 11 16  4  0  0  0  0
 15 16  4  0  0  0  0
  1 17  1  0  0  0  0
  1 18  1  0  0  0  0
  1 19  1  0  0  0  0
  2 20  1  0  0  0  0
  3 21  1  0  0  0  0
  3 22  1  0  0  0  0
  3 23  1  0  0  0  0
  7 24  1  0  0  0  0
  7 25  1  0  0  0  0
  9 26  1  0  0  0  0
  9 27  1  0  0  0  0
  9 28  1  0  0  0  0
 10 29  1  0  0  0  0
 12 30  1  0  0  0  0
 13 31  1  0  0  0  0
 14 32  1  0  0  0  0
 15 33  1  0  0  0  0
 16 34  1  0  0  0  0
M  END
