 xtb: 6.7.1 (edcfbbe)
          07082613273D

 17 17  0     0  0            999 V2000
    0.0779    1.9908    1.8007 O   0  0  0  0  0  0  0  0  0  0  0  0
    0.0349    1.3021    0.8136 C   0  0  0  0  0  0  0  0  0  0  0  0
   -1.2580    0.8264    0.1927 C   0  0  0  0  0  0  0  0  0  0  0  0
   -1.2491   -0.6962    0.0339 C   0  0  0  0  0  0  0  0  0  0  0  0
   -0.0330   -1.1461   -0.7676 C   0  0  0  0  0  0  0  0  0  0  0  0
    1.2483   -0.6943   -0.0763 C   0  0  0  0  0  0  0  0  0  0  0  0
    1.2688    0.8284    0.0811 C   0  0  0  0  0  0  0  0  0  0  0  0
   -1.3544    1.2925   -0.7913 H   0  0  0  0  0  0  0  0  0  0  0  0
   -2.0969    1.1473    0.8122 H   0  0  0  0  0  0  0  0  0  0  0  0
   -2.1685   -1.0146   -0.4615 H   0  0  0  0  0  0  0  0  0  0  0  0
   -1.2246   -1.1593    1.0228 H   0  0  0  0  0  0  0  0  0  0  0  0
   -0.0777   -0.7200   -1.7728 H   0  0  0  0  0  0  0  0  0  0  0  0
   -0.0364   -2.2335   -0.8645 H   0  0  0  0  0  0  0  0  0  0  0  0
    1.3117   -1.1573    0.9109 H   0  0  0  0  0  0  0  0  0  0  0  0
    2.1210   -1.0112   -0.6508 H   0  0  0  0  0  0  0  0  0  0  0  0
    1.2774    1.2945   -0.9074 H   0  0  0  0  0  0  0  0  0  0  0  0
    2.1585    1.1505    0.6244 H   0  0  0  0  0  0  0  0  0  0  0  0
  1  2  2  0  0  0  0
  2  3  1  0  0  0  0
  3  4  1  0  0  0  0
  4  5  1  0  0  0  0
  5  6  1  0  0  0  0
  2  7  1  0  0  0  0
  6  7  1  0  0  0  0
  3  8  1  0  0  0  0
  3  9  1  0  0  0  0
  4 10  1  0  0  0  0
  4 11  1  0  0  0  0
  5 12  1  0  0  0  0
  5 13  1  0  0  0  0
  6 14  1  0  0  0  0
  6 15  1  0  0  0  0
  7 16  1  0  0  0  0
  7 17  1  0  0  0  0
M  END
