 xtb: 6.7.1 (edcfbbe)
          07072618553D

 34 33  0     0  0            999 V2000
    5.8566    0.0157   -2.4351 C   0  0  0  0  0  0  0  0  0  0  0  0
    5.0762   -0.5343   -1.2693 C   0  0  0  0  0  0  0  0  0  0  0  0
    5.4360   -1.4338   -0.5558 O   0  0  0  0  0  0  0  0  0  0  0  0
    3.9086    0.0973   -1.1333 O   0  0  0  0  0  0  0  0  0  0  0  0
    3.0556   -0.3529   -0.0820 C   0  0  0  0  0  0  0  0  0  0  0  0
    1.7166    0.2943   -0.2323 C   0  0  0  0  0  0  0  0  0  0  0  0
    0.6873    0.0708    0.5767 C   0  0  0  0  0  0  0  0  0  0  0  0
    0.7894   -0.8808    1.7329 C   0  0  0  0  0  0  0  0  0  0  0  0
   -0.6456    0.7195    0.3476 C   0  0  0  0  0  0  0  0  0  0  0  0
   -1.6394   -0.2775   -0.2799 C   0  0  0  0  0  0  0  0  0  0  0  0
   -2.9688    0.3732   -0.5083 C   0  0  0  0  0  0  0  0  0  0  0  0
   -4.0111    0.3793    0.3143 C   0  0  0  0  0  0  0  0  0  0  0  0
   -5.2775    1.1043   -0.0383 C   0  0  0  0  0  0  0  0  0  0  0  0
   -4.0551   -0.3004    1.6505 C   0  0  0  0  0  0  0  0  0  0  0  0
    5.5896   -0.5483   -3.3270 H   0  0  0  0  0  0  0  0  0  0  0  0
    6.9200   -0.1069   -2.2529 H   0  0  0  0  0  0  0  0  0  0  0  0
    5.6081    1.0603   -2.5936 H   0  0  0  0  0  0  0  0  0  0  0  0
    2.9835   -1.4484   -0.1255 H   0  0  0  0  0  0  0  0  0  0  0  0
    3.5182   -0.0996    0.8825 H   0  0  0  0  0  0  0  0  0  0  0  0
    1.6371    0.9768   -1.0646 H   0  0  0  0  0  0  0  0  0  0  0  0
    0.9694   -1.8961    1.3800 H   0  0  0  0  0  0  0  0  0  0  0  0
   -0.1211   -0.8752    2.3255 H   0  0  0  0  0  0  0  0  0  0  0  0
    1.6244   -0.6092    2.3776 H   0  0  0  0  0  0  0  0  0  0  0  0
   -1.0563    1.0731    1.2957 H   0  0  0  0  0  0  0  0  0  0  0  0
   -0.5381    1.5769   -0.3184 H   0  0  0  0  0  0  0  0  0  0  0  0
   -1.7334   -1.1480    0.3695 H   0  0  0  0  0  0  0  0  0  0  0  0
   -1.2320   -0.6161   -1.2347 H   0  0  0  0  0  0  0  0  0  0  0  0
   -3.0451    0.9235   -1.4376 H   0  0  0  0  0  0  0  0  0  0  0  0
   -5.5181    1.8380    0.7306 H   0  0  0  0  0  0  0  0  0  0  0  0
   -5.1878    1.6161   -0.9927 H   0  0  0  0  0  0  0  0  0  0  0  0
   -6.1100    0.4033   -0.0967 H   0  0  0  0  0  0  0  0  0  0  0  0
   -4.0699    0.4475    2.4437 H   0  0  0  0  0  0  0  0  0  0  0  0
   -4.9656   -0.8917    1.7393 H   0  0  0  0  0  0  0  0  0  0  0  0
   -3.2017   -0.9508    1.8116 H   0  0  0  0  0  0  0  0  0  0  0  0
  1  2  1  0  0  0  0
  2  3  2  0  0  0  0
  2  4  1  0  0  0  0
  4  5  1  0  0  0  0
  5  6  1  0  0  0  0
  6  7  2  0  0  0  0
  7  8  1  0  0  0  0
  7  9  1  0  0  0  0
  9 10  1  0  0  0  0
 10 11  1  0  0  0  0
 11 12  2  0  0  0  0
 12 13  1  0  0  0  0
 12 14  1  0  0  0  0
  1 15  1  0  0  0  0
  1 16  1  0  0  0  0
  1 17  1  0  0  0  0
  5 18  1  0  0  0  0
  5 19  1  0  0  0  0
  6 20  1  0  0  0  0
  8 21  1  0  0  0  0
  8 22  1  0  0  0  0
  8 23  1  0  0  0  0
  9 24  1  0  0  0  0
  9 25  1  0  0  0  0
 10 26  1  0  0  0  0
 10 27  1  0  0  0  0
 11 28  1  0  0  0  0
 13 29  1  0  0  0  0
 13 30  1  0  0  0  0
 13 31  1  0  0  0  0
 14 32  1  0  0  0  0
 14 33  1  0  0  0  0
 14 34  1  0  0  0  0
M  END
