 xtb: 6.7.1 (edcfbbe)
          07072605433D

 29 30  0     0  0            999 V2000
    4.2001    0.2686   -0.2722 C   0  0  0  0  0  0  0  0  0  0  0  0
    2.9001   -0.1933   -0.5938 O   0  0  0  0  0  0  0  0  0  0  0  0
    1.8876    0.3990    0.0837 C   0  0  0  0  0  0  0  0  0  0  0  0
    2.0657    1.2674    0.9121 O   0  0  0  0  0  0  0  0  0  0  0  0
    0.6014   -0.1172   -0.3189 C   0  0  0  0  0  0  0  0  0  0  0  0
    0.3107   -1.3560   -0.8495 C   0  0  0  0  0  0  0  0  0  0  0  0
    0.5884   -2.5241    0.0302 C   0  0  0  0  0  0  0  0  0  0  0  0
   -0.5555   -2.1320    1.0511 C   0  0  0  0  0  0  0  0  0  0  0  0
   -1.4249   -1.0278    0.3547 C   0  0  0  0  0  0  0  0  0  0  0  0
   -1.1908   -1.4098   -1.1010 C   0  0  0  0  0  0  0  0  0  0  0  0
   -0.6850    0.3523    0.3444 C   0  0  0  0  0  0  0  0  0  0  0  0
   -1.4919    1.4453   -0.3285 C   0  0  0  0  0  0  0  0  0  0  0  0
   -1.6524    1.5787   -1.5130 O   0  0  0  0  0  0  0  0  0  0  0  0
   -2.0291    2.2568    0.5855 O   0  0  0  0  0  0  0  0  0  0  0  0
   -2.8102    3.3362    0.0891 C   0  0  0  0  0  0  0  0  0  0  0  0
    4.8849   -0.2762   -0.9173 H   0  0  0  0  0  0  0  0  0  0  0  0
    4.2778    1.3433   -0.4510 H   0  0  0  0  0  0  0  0  0  0  0  0
    4.4265    0.0741    0.7790 H   0  0  0  0  0  0  0  0  0  0  0  0
    1.5721   -2.5077    0.4899 H   0  0  0  0  0  0  0  0  0  0  0  0
    0.4092   -3.4911   -0.4344 H   0  0  0  0  0  0  0  0  0  0  0  0
   -1.1812   -2.9962    1.2686 H   0  0  0  0  0  0  0  0  0  0  0  0
   -0.1245   -1.7659    1.9814 H   0  0  0  0  0  0  0  0  0  0  0  0
   -2.4462   -0.9878    0.7334 H   0  0  0  0  0  0  0  0  0  0  0  0
   -1.5551   -2.3989   -1.3672 H   0  0  0  0  0  0  0  0  0  0  0  0
   -1.5383   -0.6712   -1.8167 H   0  0  0  0  0  0  0  0  0  0  0  0
   -0.4246    0.7132    1.3435 H   0  0  0  0  0  0  0  0  0  0  0  0
   -3.1937    3.8602    0.9606 H   0  0  0  0  0  0  0  0  0  0  0  0
   -3.6295    2.9594   -0.5267 H   0  0  0  0  0  0  0  0  0  0  0  0
   -2.1916    4.0008   -0.5169 H   0  0  0  0  0  0  0  0  0  0  0  0
  1  2  1  0  0  0  0
  2  3  1  0  0  0  0
  3  4  2  0  0  0  0
  3  5  1  0  0  0  0
  5  6  2  0  0  0  0
  6  7  1  0  0  0  0
  7  8  1  0  0  0  0
  8  9  1  0  0  0  0
  6 10  1  0  0  0  0
  9 10  1  0  0  0  0
  5 11  1  0  0  0  0
  9 11  1  0  0  0  0
 11 12  1  0  0  0  0
 12 13  2  0  0  0  0
 12 14  1  0  0  0  0
 14 15  1  0  0  0  0
  1 16  1  0  0  0  0
  1 17  1  0  0  0  0
  1 18  1  0  0  0  0
  7 19  1  0  0  0  0
  7 20  1  0  0  0  0
  8 21  1  0  0  0  0
  8 22  1  0  0  0  0
  9 23  1  0  0  0  0
 10 24  1  0  0  0  0
 10 25  1  0  0  0  0
 11 26  1  0  0  0  0
 15 27  1  0  0  0  0
 15 28  1  0  0  0  0
 15 29  1  0  0  0  0
M  END
