 xtb: 6.7.1 (edcfbbe)
          07072610143D

 28 29  0     0  0            999 V2000
   -2.6281    1.5028   -0.4290 C   0  0  0  0  0  0  0  0  0  0  0  0
   -2.6616    0.4609    0.6828 C   0  0  0  0  0  0  0  0  0  0  0  0
   -1.8684   -0.7983    0.3203 C   0  0  0  0  0  0  0  0  0  0  0  0
   -1.9707   -1.8655    1.4068 C   0  0  0  0  0  0  0  0  0  0  0  0
   -0.4715   -0.4689    0.0740 N   0  0  0  0  0  0  0  0  0  0  0  0
    0.1261   -0.6666   -1.1636 C   0  0  0  0  0  0  0  0  0  0  0  0
   -0.4246   -1.1257   -2.1322 O   0  0  0  0  0  0  0  0  0  0  0  0
    1.5267   -0.2044   -1.0104 C   0  0  0  0  0  0  0  0  0  0  0  0
    2.5692   -0.1689   -1.9124 C   0  0  0  0  0  0  0  0  0  0  0  0
    3.7906    0.3275   -1.4669 C   0  0  0  0  0  0  0  0  0  0  0  0
    3.9525    0.7703   -0.1633 C   0  0  0  0  0  0  0  0  0  0  0  0
    2.8991    0.7343    0.7455 C   0  0  0  0  0  0  0  0  0  0  0  0
    1.6896    0.2422    0.3028 C   0  0  0  0  0  0  0  0  0  0  0  0
    0.3947    0.0739    1.0109 C   0  0  0  0  0  0  0  0  0  0  0  0
    0.1233    0.3426    2.1543 O   0  0  0  0  0  0  0  0  0  0  0  0
   -1.6140    1.8619   -0.5954 H   0  0  0  0  0  0  0  0  0  0  0  0
   -2.9972    1.0799   -1.3612 H   0  0  0  0  0  0  0  0  0  0  0  0
   -3.2497    2.3551   -0.1658 H   0  0  0  0  0  0  0  0  0  0  0  0
   -3.6941    0.1647    0.8744 H   0  0  0  0  0  0  0  0  0  0  0  0
   -2.2543    0.8840    1.6022 H   0  0  0  0  0  0  0  0  0  0  0  0
   -2.2369   -1.2004   -0.6315 H   0  0  0  0  0  0  0  0  0  0  0  0
   -1.5948   -1.4768    2.3496 H   0  0  0  0  0  0  0  0  0  0  0  0
   -1.3907   -2.7438    1.1310 H   0  0  0  0  0  0  0  0  0  0  0  0
   -3.0081   -2.1608    1.5368 H   0  0  0  0  0  0  0  0  0  0  0  0
    2.4356   -0.5154   -2.9252 H   0  0  0  0  0  0  0  0  0  0  0  0
    4.6269    0.3684   -2.1489 H   0  0  0  0  0  0  0  0  0  0  0  0
    4.9127    1.1499    0.1528 H   0  0  0  0  0  0  0  0  0  0  0  0
    3.0175    1.0771    1.7615 H   0  0  0  0  0  0  0  0  0  0  0  0
  1  2  1  0  0  0  0
  2  3  1  0  0  0  0
  3  4  1  0  0  0  0
  3  5  1  0  0  0  0
  5  6  1  0  0  0  0
  6  7  2  0  0  0  0
  6  8  1  0  0  0  0
  8  9  4  0  0  0  0
  9 10  4  0  0  0  0
 10 11  4  0  0  0  0
 11 12  4  0  0  0  0
  8 13  4  0  0  0  0
 12 13  4  0  0  0  0
  5 14  1  0  0  0  0
 13 14  1  0  0  0  0
 14 15  2  0  0  0  0
  1 16  1  0  0  0  0
  1 17  1  0  0  0  0
  1 18  1  0  0  0  0
  2 19  1  0  0  0  0
  2 20  1  0  0  0  0
  3 21  1  0  0  0  0
  4 22  1  0  0  0  0
  4 23  1  0  0  0  0
  4 24  1  0  0  0  0
  9 25  1  0  0  0  0
 10 26  1  0  0  0  0
 11 27  1  0  0  0  0
 12 28  1  0  0  0  0
M  END
