 xtb: 6.7.1 (edcfbbe)
          07082603043D

 31 31  0     0  0            999 V2000
    1.6818    2.7009    0.2704 C   0  0  0  0  0  0  0  0  0  0  0  0
    2.3948    1.3609    0.4269 C   0  0  0  0  0  0  0  0  0  0  0  0
    1.4706    0.2467    0.3009 N   0  0  0  0  0  0  0  0  0  0  0  0
    1.2203   -0.2416   -1.0372 C   0  0  0  0  0  0  0  0  0  0  0  0
    2.2212   -1.3204   -1.4550 C   0  0  0  0  0  0  0  0  0  0  0  0
    0.9311   -0.2597    1.4333 C   0  0  0  0  0  0  0  0  0  0  0  0
    1.2136    0.1828    2.5317 O   0  0  0  0  0  0  0  0  0  0  0  0
   -0.0715   -1.3994    1.2809 C   0  0  0  0  0  0  0  0  0  0  0  0
   -1.3752   -0.9113    0.7083 C   0  0  0  0  0  0  0  0  0  0  0  0
   -1.9408    0.2689    1.1772 C   0  0  0  0  0  0  0  0  0  0  0  0
   -3.1386    0.7277    0.6605 C   0  0  0  0  0  0  0  0  0  0  0  0
   -3.7904    0.0103   -0.3288 C   0  0  0  0  0  0  0  0  0  0  0  0
   -3.2390   -1.1700   -0.7960 C   0  0  0  0  0  0  0  0  0  0  0  0
   -2.0379   -1.6268   -0.2818 C   0  0  0  0  0  0  0  0  0  0  0  0
    2.3960    3.5148    0.3610 H   0  0  0  0  0  0  0  0  0  0  0  0
    0.9297    2.8078    1.0474 H   0  0  0  0  0  0  0  0  0  0  0  0
    1.1924    2.7724   -0.6990 H   0  0  0  0  0  0  0  0  0  0  0  0
    2.8429    1.3028    1.4213 H   0  0  0  0  0  0  0  0  0  0  0  0
    3.1797    1.2534   -0.3257 H   0  0  0  0  0  0  0  0  0  0  0  0
    1.2992    0.6071   -1.7222 H   0  0  0  0  0  0  0  0  0  0  0  0
    0.2017   -0.6245   -1.1086 H   0  0  0  0  0  0  0  0  0  0  0  0
    2.0074   -1.6511   -2.4680 H   0  0  0  0  0  0  0  0  0  0  0  0
    2.1663   -2.1780   -0.7891 H   0  0  0  0  0  0  0  0  0  0  0  0
    3.2369   -0.9335   -1.4238 H   0  0  0  0  0  0  0  0  0  0  0  0
    0.3392   -2.2064    0.6737 H   0  0  0  0  0  0  0  0  0  0  0  0
   -0.2458   -1.7836    2.2897 H   0  0  0  0  0  0  0  0  0  0  0  0
   -1.4349    0.8236    1.9537 H   0  0  0  0  0  0  0  0  0  0  0  0
   -3.5666    1.6470    1.0323 H   0  0  0  0  0  0  0  0  0  0  0  0
   -4.7263    0.3678   -0.7318 H   0  0  0  0  0  0  0  0  0  0  0  0
   -3.7444   -1.7377   -1.5638 H   0  0  0  0  0  0  0  0  0  0  0  0
   -1.6135   -2.5509   -0.6508 H   0  0  0  0  0  0  0  0  0  0  0  0
  1  2  1  0  0  0  0
  2  3  1  0  0  0  0
  3  4  1  0  0  0  0
  4  5  1  0  0  0  0
  3  6  4  0  0  0  0
  6  7  2  0  0  0  0
  6  8  1  0  0  0  0
  8  9  1  0  0  0  0
  9 10  4  0  0  0  0
 10 11  4  0  0  0  0
 11 12  4  0  0  0  0
 12 13  4  0  0  0  0
  9 14  4  0  0  0  0
 13 14  4  0  0  0  0
  1 15  1  0  0  0  0
  1 16  1  0  0  0  0
  1 17  1  0  0  0  0
  2 18  1  0  0  0  0
  2 19  1  0  0  0  0
  4 20  1  0  0  0  0
  4 21  1  0  0  0  0
  5 22  1  0  0  0  0
  5 23  1  0  0  0  0
  5 24  1  0  0  0  0
  8 25  1  0  0  0  0
  8 26  1  0  0  0  0
 10 27  1  0  0  0  0
 11 28  1  0  0  0  0
 12 29  1  0  0  0  0
 13 30  1  0  0  0  0
 14 31  1  0  0  0  0
M  END
