 xtb: 6.7.1 (edcfbbe)
          07092606243D

 29 28  0     0  0            999 V2000
    5.3652   -0.4026    0.0547 C   0  0  0  0  0  0  0  0  0  0  0  0
    4.1163    0.4252    0.3263 C   0  0  0  0  0  0  0  0  0  0  0  0
    2.8462   -0.3592    0.0128 C   0  0  0  0  0  0  0  0  0  0  0  0
    1.5994    0.4596    0.2556 C   0  0  0  0  0  0  0  0  0  0  0  0
    1.5719    1.6036    0.6253 O   0  0  0  0  0  0  0  0  0  0  0  0
    0.5020   -0.2614   -0.0001 O   0  0  0  0  0  0  0  0  0  0  0  0
   -0.7516    0.4008    0.1850 C   0  0  0  0  0  0  0  0  0  0  0  0
   -1.8597   -0.5541   -0.2346 C   0  0  0  0  0  0  0  0  0  0  0  0
   -3.2622   -0.0315    0.0930 C   0  0  0  0  0  0  0  0  0  0  0  0
   -4.2921   -1.1292   -0.1684 C   0  0  0  0  0  0  0  0  0  0  0  0
   -3.6058    1.2120   -0.7237 C   0  0  0  0  0  0  0  0  0  0  0  0
    5.4087   -0.6991   -0.9911 H   0  0  0  0  0  0  0  0  0  0  0  0
    6.2588    0.1717    0.2852 H   0  0  0  0  0  0  0  0  0  0  0  0
    5.3691   -1.3027    0.6660 H   0  0  0  0  0  0  0  0  0  0  0  0
    4.1317    1.3324   -0.2796 H   0  0  0  0  0  0  0  0  0  0  0  0
    4.0946    0.7339    1.3725 H   0  0  0  0  0  0  0  0  0  0  0  0
    2.7834   -1.2597    0.6278 H   0  0  0  0  0  0  0  0  0  0  0  0
    2.8377   -0.6798   -1.0315 H   0  0  0  0  0  0  0  0  0  0  0  0
   -0.7513    1.3190   -0.4106 H   0  0  0  0  0  0  0  0  0  0  0  0
   -0.8505    0.6804    1.2405 H   0  0  0  0  0  0  0  0  0  0  0  0
   -1.7783   -0.7451   -1.3062 H   0  0  0  0  0  0  0  0  0  0  0  0
   -1.6968   -1.5009    0.2842 H   0  0  0  0  0  0  0  0  0  0  0  0
   -3.2944    0.2295    1.1568 H   0  0  0  0  0  0  0  0  0  0  0  0
   -4.2821   -1.4152   -1.2178 H   0  0  0  0  0  0  0  0  0  0  0  0
   -5.2914   -0.7814    0.0824 H   0  0  0  0  0  0  0  0  0  0  0  0
   -4.0769   -2.0114    0.4299 H   0  0  0  0  0  0  0  0  0  0  0  0
   -2.9413    2.0368   -0.4820 H   0  0  0  0  0  0  0  0  0  0  0  0
   -4.6254    1.5279   -0.5150 H   0  0  0  0  0  0  0  0  0  0  0  0
   -3.5250    1.0005   -1.7877 H   0  0  0  0  0  0  0  0  0  0  0  0
  1  2  1  0  0  0  0
  2  3  1  0  0  0  0
  3  4  1  0  0  0  0
  4  5  2  0  0  0  0
  4  6  1  0  0  0  0
  6  7  1  0  0  0  0
  7  8  1  0  0  0  0
  8  9  1  0  0  0  0
  9 10  1  0  0  0  0
  9 11  1  0  0  0  0
  1 12  1  0  0  0  0
  1 13  1  0  0  0  0
  1 14  1  0  0  0  0
  2 15  1  0  0  0  0
  2 16  1  0  0  0  0
  3 17  1  0  0  0  0
  3 18  1  0  0  0  0
  7 19  1  0  0  0  0
  7 20  1  0  0  0  0
  8 21  1  0  0  0  0
  8 22  1  0  0  0  0
  9 23  1  0  0  0  0
 10 24  1  0  0  0  0
 10 25  1  0  0  0  0
 10 26  1  0  0  0  0
 11 27  1  0  0  0  0
 11 28  1  0  0  0  0
 11 29  1  0  0  0  0
M  END
