 xtb: 6.7.1 (edcfbbe)
          07092605583D

 27 26  0     0  0            999 V2000
    4.5135    0.1500    0.1081 C   0  0  0  0  0  0  0  0  0  0  0  0
    3.9967    0.0256   -1.0984 C   0  0  0  0  0  0  0  0  0  0  0  0
    2.5651   -0.3093   -1.3951 C   0  0  0  0  0  0  0  0  0  0  0  0
    1.7723   -0.4698   -0.2241 O   0  0  0  0  0  0  0  0  0  0  0  0
    1.1273    0.6110    0.2330 C   0  0  0  0  0  0  0  0  0  0  0  0
    1.1445    1.6843   -0.3084 O   0  0  0  0  0  0  0  0  0  0  0  0
    0.3670    0.2895    1.4995 C   0  0  0  0  0  0  0  0  0  0  0  0
   -1.1158    0.6341    1.3372 C   0  0  0  0  0  0  0  0  0  0  0  0
   -1.7963   -0.2670    0.3098 C   0  0  0  0  0  0  0  0  0  0  0  0
   -3.2796    0.0600    0.1556 C   0  0  0  0  0  0  0  0  0  0  0  0
   -3.9557   -0.8495   -0.8630 C   0  0  0  0  0  0  0  0  0  0  0  0
    3.9209    0.0076    0.9964 H   0  0  0  0  0  0  0  0  0  0  0  0
    5.5494    0.3996    0.2566 H   0  0  0  0  0  0  0  0  0  0  0  0
    4.5981    0.1686   -1.9855 H   0  0  0  0  0  0  0  0  0  0  0  0
    2.5043   -1.2607   -1.9338 H   0  0  0  0  0  0  0  0  0  0  0  0
    2.1293    0.4849   -2.0158 H   0  0  0  0  0  0  0  0  0  0  0  0
    0.7942    0.8943    2.3022 H   0  0  0  0  0  0  0  0  0  0  0  0
    0.5002   -0.7662    1.7359 H   0  0  0  0  0  0  0  0  0  0  0  0
   -1.6152    0.5295    2.3026 H   0  0  0  0  0  0  0  0  0  0  0  0
   -1.1987    1.6757    1.0214 H   0  0  0  0  0  0  0  0  0  0  0  0
   -1.3005   -0.1491   -0.6565 H   0  0  0  0  0  0  0  0  0  0  0  0
   -1.6865   -1.3112    0.6135 H   0  0  0  0  0  0  0  0  0  0  0  0
   -3.7751   -0.0471    1.1234 H   0  0  0  0  0  0  0  0  0  0  0  0
   -3.3871    1.1004   -0.1583 H   0  0  0  0  0  0  0  0  0  0  0  0
   -5.0090   -0.5982   -0.9621 H   0  0  0  0  0  0  0  0  0  0  0  0
   -3.8785   -1.8905   -0.5560 H   0  0  0  0  0  0  0  0  0  0  0  0
   -3.4848   -0.7451   -1.8381 H   0  0  0  0  0  0  0  0  0  0  0  0
  1  2  2  0  0  0  0
  2  3  1  0  0  0  0
  3  4  1  0  0  0  0
  4  5  1  0  0  0  0
  5  6  2  0  0  0  0
  5  7  1  0  0  0  0
  7  8  1  0  0  0  0
  8  9  1  0  0  0  0
  9 10  1  0  0  0  0
 10 11  1  0  0  0  0
  1 12  1  0  0  0  0
  1 13  1  0  0  0  0
  2 14  1  0  0  0  0
  3 15  1  0  0  0  0
  3 16  1  0  0  0  0
  7 17  1  0  0  0  0
  7 18  1  0  0  0  0
  8 19  1  0  0  0  0
  8 20  1  0  0  0  0
  9 21  1  0  0  0  0
  9 22  1  0  0  0  0
 10 23  1  0  0  0  0
 10 24  1  0  0  0  0
 11 25  1  0  0  0  0
 11 26  1  0  0  0  0
 11 27  1  0  0  0  0
M  END
