 xtb: 6.7.1 (edcfbbe)
          07072600453D

 73 73  0     0  0            999 V2000
    0.7857   -1.3503    5.2373 C   0  0  0  0  0  0  0  0  0  0  0  0
    0.2984   -0.5743    4.2769 C   0  0  0  0  0  0  0  0  0  0  0  0
   -0.9371    0.2716    4.4483 C   0  0  0  0  0  0  0  0  0  0  0  0
   -2.1572   -0.3760    3.7858 C   0  0  0  0  0  0  0  0  0  0  0  0
   -3.4598    0.3945    4.0399 C   0  0  0  0  0  0  0  0  0  0  0  0
   -4.4396   -0.1616    3.0019 C   0  0  0  0  0  0  0  0  0  0  0  0
   -3.5713   -0.7811    1.9454 C   0  0  0  0  0  0  0  0  0  0  0  0
   -4.1009   -1.4439    1.0128 N   0  0  0  0  0  0  0  0  0  0  0  0
   -3.2006   -2.0830    0.1201 O   0  0  0  0  0  0  0  0  0  0  0  0
   -3.6084   -2.1377   -1.1605 C   0  0  0  0  0  0  0  0  0  0  0  0
   -4.6008   -1.6285   -1.5934 O   0  0  0  0  0  0  0  0  0  0  0  0
   -2.5705   -2.8928   -1.9673 C   0  0  0  0  0  0  0  0  0  0  0  0
   -3.1539   -3.4045   -3.2769 C   0  0  0  0  0  0  0  0  0  0  0  0
   -2.1223   -0.5222    2.2521 C   0  0  0  0  0  0  0  0  0  0  0  0
   -1.6440    0.7394    1.5129 C   0  0  0  0  0  0  0  0  0  0  0  0
   -1.6331    0.5681   -0.0038 C   0  0  0  0  0  0  0  0  0  0  0  0
   -0.9920    1.7661   -0.6981 C   0  0  0  0  0  0  0  0  0  0  0  0
   -0.9184    1.5741   -2.2109 C   0  0  0  0  0  0  0  0  0  0  0  0
   -0.2506    2.7562   -2.9026 C   0  0  0  0  0  0  0  0  0  0  0  0
    0.8010   -0.4390    3.0212 O   0  0  0  0  0  0  0  0  0  0  0  0
    1.8348   -1.3115    2.5911 C   0  0  0  0  0  0  0  0  0  0  0  0
    1.9554   -1.1983    1.0968 C   0  0  0  0  0  0  0  0  0  0  0  0
    2.3788   -0.1165    0.4515 C   0  0  0  0  0  0  0  0  0  0  0  0
    2.8310    1.1236    1.1649 C   0  0  0  0  0  0  0  0  0  0  0  0
    2.4718   -0.0910   -1.0454 C   0  0  0  0  0  0  0  0  0  0  0  0
    3.9348   -0.0653   -1.5259 C   0  0  0  0  0  0  0  0  0  0  0  0
    3.9888   -0.0712   -3.0236 C   0  0  0  0  0  0  0  0  0  0  0  0
    3.9914    0.9859   -3.8269 C   0  0  0  0  0  0  0  0  0  0  0  0
    3.9728    2.4137   -3.3688 C   0  0  0  0  0  0  0  0  0  0  0  0
    4.0141    0.8310   -5.3197 C   0  0  0  0  0  0  0  0  0  0  0  0
    0.3056   -1.3882    6.1967 H   0  0  0  0  0  0  0  0  0  0  0  0
    1.6631   -1.9592    5.1194 H   0  0  0  0  0  0  0  0  0  0  0  0
   -1.1438    0.3882    5.5125 H   0  0  0  0  0  0  0  0  0  0  0  0
   -0.7603    1.2589    4.0208 H   0  0  0  0  0  0  0  0  0  0  0  0
   -2.2654   -1.3834    4.2059 H   0  0  0  0  0  0  0  0  0  0  0  0
   -3.8202    0.2574    5.0584 H   0  0  0  0  0  0  0  0  0  0  0  0
   -3.2941    1.4610    3.8840 H   0  0  0  0  0  0  0  0  0  0  0  0
   -5.0848    0.6031    2.5701 H   0  0  0  0  0  0  0  0  0  0  0  0
   -5.0881   -0.9289    3.4256 H   0  0  0  0  0  0  0  0  0  0  0  0
   -2.1757   -3.7057   -1.3570 H   0  0  0  0  0  0  0  0  0  0  0  0
   -1.7529   -2.1943   -2.1657 H   0  0  0  0  0  0  0  0  0  0  0  0
   -3.6004   -2.5816   -3.8285 H   0  0  0  0  0  0  0  0  0  0  0  0
   -2.3780   -3.8613   -3.8858 H   0  0  0  0  0  0  0  0  0  0  0  0
   -3.9287   -4.1420   -3.0841 H   0  0  0  0  0  0  0  0  0  0  0  0
   -1.4960   -1.3594    1.9356 H   0  0  0  0  0  0  0  0  0  0  0  0
   -2.2776    1.5884    1.7767 H   0  0  0  0  0  0  0  0  0  0  0  0
   -0.6240    0.9484    1.8332 H   0  0  0  0  0  0  0  0  0  0  0  0
   -2.6510    0.4451   -0.3796 H   0  0  0  0  0  0  0  0  0  0  0  0
   -1.0660   -0.3320   -0.2536 H   0  0  0  0  0  0  0  0  0  0  0  0
   -1.5685    2.6676   -0.4766 H   0  0  0  0  0  0  0  0  0  0  0  0
    0.0152    1.9103   -0.3004 H   0  0  0  0  0  0  0  0  0  0  0  0
   -1.9277    1.4427   -2.6069 H   0  0  0  0  0  0  0  0  0  0  0  0
   -0.3564    0.6630   -2.4305 H   0  0  0  0  0  0  0  0  0  0  0  0
    0.7605    2.8971   -2.5251 H   0  0  0  0  0  0  0  0  0  0  0  0
   -0.1967    2.5918   -3.9764 H   0  0  0  0  0  0  0  0  0  0  0  0
   -0.8112    3.6710   -2.7227 H   0  0  0  0  0  0  0  0  0  0  0  0
    2.7785   -1.0363    3.0853 H   0  0  0  0  0  0  0  0  0  0  0  0
    1.5855   -2.3424    2.8697 H   0  0  0  0  0  0  0  0  0  0  0  0
    1.6354   -2.0649    0.5363 H   0  0  0  0  0  0  0  0  0  0  0  0
    2.2532    1.2805    2.0708 H   0  0  0  0  0  0  0  0  0  0  0  0
    2.7242    1.9970    0.5255 H   0  0  0  0  0  0  0  0  0  0  0  0
    3.8817    1.0342    1.4437 H   0  0  0  0  0  0  0  0  0  0  0  0
    1.9788   -0.9691   -1.4665 H   0  0  0  0  0  0  0  0  0  0  0  0
    1.9686    0.7973   -1.4322 H   0  0  0  0  0  0  0  0  0  0  0  0
    4.4461   -0.9495   -1.1395 H   0  0  0  0  0  0  0  0  0  0  0  0
    4.4353    0.8141   -1.1204 H   0  0  0  0  0  0  0  0  0  0  0  0
    3.9808   -1.0569   -3.4713 H   0  0  0  0  0  0  0  0  0  0  0  0
    3.0733    2.9066   -3.7379 H   0  0  0  0  0  0  0  0  0  0  0  0
    4.8300    2.9478   -3.7786 H   0  0  0  0  0  0  0  0  0  0  0  0
    3.9944    2.5022   -2.2876 H   0  0  0  0  0  0  0  0  0  0  0  0
    4.0206   -0.2165   -5.6089 H   0  0  0  0  0  0  0  0  0  0  0  0
    3.1398    1.3091   -5.7610 H   0  0  0  0  0  0  0  0  0  0  0  0
    4.8984    1.3128   -5.7364 H   0  0  0  0  0  0  0  0  0  0  0  0
  1  2  2  0  0  0  0
  2  3  1  0  0  0  0
  3  4  1  0  0  0  0
  4  5  1  0  0  0  0
  5  6  1  0  0  0  0
  6  7  1  0  0  0  0
  7  8  2  0  0  0  0
  8  9  1  0  0  0  0
  9 10  1  0  0  0  0
 10 11  2  0  0  0  0
 10 12  1  0  0  0  0
 12 13  1  0  0  0  0
  4 14  1  0  0  0  0
  7 14  1  0  0  0  0
 14 15  1  0  0  0  0
 15 16  1  0  0  0  0
 16 17  1  0  0  0  0
 17 18  1  0  0  0  0
 18 19  1  0  0  0  0
  2 20  1  0  0  0  0
 20 21  1  0  0  0  0
 21 22  1  0  0  0  0
 22 23  2  0  0  0  0
 23 24  1  0  0  0  0
 23 25  1  0  0  0  0
 25 26  1  0  0  0  0
 26 27  1  0  0  0  0
 27 28  2  0  0  0  0
 28 29  1  0  0  0  0
 28 30  1  0  0  0  0
  1 31  1  0  0  0  0
  1 32  1  0  0  0  0
  3 33  1  0  0  0  0
  3 34  1  0  0  0  0
  4 35  1  0  0  0  0
  5 36  1  0  0  0  0
  5 37  1  0  0  0  0
  6 38  1  0  0  0  0
  6 39  1  0  0  0  0
 12 40  1  0  0  0  0
 12 41  1  0  0  0  0
 13 42  1  0  0  0  0
 13 43  1  0  0  0  0
 13 44  1  0  0  0  0
 14 45  1  0  0  0  0
 15 46  1  0  0  0  0
 15 47  1  0  0  0  0
 16 48  1  0  0  0  0
 16 49  1  0  0  0  0
 17 50  1  0  0  0  0
 17 51  1  0  0  0  0
 18 52  1  0  0  0  0
 18 53  1  0  0  0  0
 19 54  1  0  0  0  0
 19 55  1  0  0  0  0
 19 56  1  0  0  0  0
 21 57  1  0  0  0  0
 21 58  1  0  0  0  0
 22 59  1  0  0  0  0
 24 60  1  0  0  0  0
 24 61  1  0  0  0  0
 24 62  1  0  0  0  0
 25 63  1  0  0  0  0
 25 64  1  0  0  0  0
 26 65  1  0  0  0  0
 26 66  1  0  0  0  0
 27 67  1  0  0  0  0
 29 68  1  0  0  0  0
 29 69  1  0  0  0  0
 29 70  1  0  0  0  0
 30 71  1  0  0  0  0
 30 72  1  0  0  0  0
 30 73  1  0  0  0  0
M  END
