 xtb: 6.7.1 (edcfbbe)
          07072612443D

 34 35  0     0  0            999 V2000
   -4.6240   -0.3853   -0.4898 C   0  0  0  0  0  0  0  0  0  0  0  0
   -3.3295   -0.0852    0.2549 C   0  0  0  0  0  0  0  0  0  0  0  0
   -2.7067    1.2285   -0.2120 C   0  0  0  0  0  0  0  0  0  0  0  0
   -1.4610    1.6021    0.5908 C   0  0  0  0  0  0  0  0  0  0  0  0
   -0.4077    0.6188    0.4405 N   0  0  0  0  0  0  0  0  0  0  0  0
   -0.0749   -0.2917    1.4226 C   0  0  0  0  0  0  0  0  0  0  0  0
   -0.6547   -0.4157    2.4687 O   0  0  0  0  0  0  0  0  0  0  0  0
    1.1909   -0.9907    0.9612 C   0  0  0  0  0  0  0  0  0  0  0  0
    2.3535   -0.2566    1.6537 C   0  0  0  0  0  0  0  0  0  0  0  0
    3.6735   -0.4831    0.9280 C   0  0  0  0  0  0  0  0  0  0  0  0
    3.5660    0.0480   -0.4966 C   0  0  0  0  0  0  0  0  0  0  0  0
    2.5206   -0.7482   -1.2679 C   0  0  0  0  0  0  0  0  0  0  0  0
    1.1716   -0.7737   -0.5539 C   0  0  0  0  0  0  0  0  0  0  0  0
    0.3513    0.4964   -0.7064 C   0  0  0  0  0  0  0  0  0  0  0  0
    0.3083    1.2479   -1.6438 O   0  0  0  0  0  0  0  0  0  0  0  0
   -5.3553    0.4005   -0.3145 H   0  0  0  0  0  0  0  0  0  0  0  0
   -5.0475   -1.3290   -0.1549 H   0  0  0  0  0  0  0  0  0  0  0  0
   -4.4423   -0.4502   -1.5605 H   0  0  0  0  0  0  0  0  0  0  0  0
   -2.6232   -0.9032    0.0947 H   0  0  0  0  0  0  0  0  0  0  0  0
   -3.5269   -0.0298    1.3273 H   0  0  0  0  0  0  0  0  0  0  0  0
   -3.4336    2.0353   -0.1023 H   0  0  0  0  0  0  0  0  0  0  0  0
   -2.4395    1.1585   -1.2685 H   0  0  0  0  0  0  0  0  0  0  0  0
   -1.6936    1.6542    1.6571 H   0  0  0  0  0  0  0  0  0  0  0  0
   -1.0723    2.5643    0.2460 H   0  0  0  0  0  0  0  0  0  0  0  0
    1.1993   -2.0446    1.2425 H   0  0  0  0  0  0  0  0  0  0  0  0
    2.1450    0.8171    1.6649 H   0  0  0  0  0  0  0  0  0  0  0  0
    2.4128   -0.5929    2.6897 H   0  0  0  0  0  0  0  0  0  0  0  0
    4.4719    0.0325    1.4641 H   0  0  0  0  0  0  0  0  0  0  0  0
    3.9118   -1.5485    0.9080 H   0  0  0  0  0  0  0  0  0  0  0  0
    4.5283   -0.0302   -1.0050 H   0  0  0  0  0  0  0  0  0  0  0  0
    3.2825    1.1023   -0.4736 H   0  0  0  0  0  0  0  0  0  0  0  0
    2.8742   -1.7741   -1.3933 H   0  0  0  0  0  0  0  0  0  0  0  0
    2.3726   -0.3143   -2.2586 H   0  0  0  0  0  0  0  0  0  0  0  0
    0.5585   -1.5594   -1.0160 H   0  0  0  0  0  0  0  0  0  0  0  0
  1  2  1  0  0  0  0
  2  3  1  0  0  0  0
  3  4  1  0  0  0  0
  4  5  1  0  0  0  0
  5  6  1  0  0  0  0
  6  7  2  0  0  0  0
  6  8  1  0  0  0  0
  8  9  1  0  0  0  0
  9 10  1  0  0  0  0
 10 11  1  0  0  0  0
 11 12  1  0  0  0  0
  8 13  1  0  0  0  0
 12 13  1  0  0  0  0
  5 14  1  0  0  0  0
 13 14  1  0  0  0  0
 14 15  2  0  0  0  0
  1 16  1  0  0  0  0
  1 17  1  0  0  0  0
  1 18  1  0  0  0  0
  2 19  1  0  0  0  0
  2 20  1  0  0  0  0
  3 21  1  0  0  0  0
  3 22  1  0  0  0  0
  4 23  1  0  0  0  0
  4 24  1  0  0  0  0
  8 25  1  0  0  0  0
  9 26  1  0  0  0  0
  9 27  1  0  0  0  0
 10 28  1  0  0  0  0
 10 29  1  0  0  0  0
 11 30  1  0  0  0  0
 11 31  1  0  0  0  0
 12 32  1  0  0  0  0
 12 33  1  0  0  0  0
 13 34  1  0  0  0  0
M  END
