 xtb: 6.7.1 (edcfbbe)
          07092604443D

 29 30  0     0  0            999 V2000
   -2.6133    0.4092   -0.7953 C   0  0  0  0  0  0  0  0  0  0  0  0
   -1.2919   -0.0141   -0.1844 C   0  0  0  0  0  0  0  0  0  0  0  0
   -1.3825   -0.3994    1.3032 C   0  0  0  0  0  0  0  0  0  0  0  0
   -0.1647   -1.3157    1.5188 C   0  0  0  0  0  0  0  0  0  0  0  0
    0.5729   -1.2110    0.1807 C   0  0  0  0  0  0  0  0  0  0  0  0
   -0.6091   -1.2451   -0.7879 C   0  0  0  0  0  0  0  0  0  0  0  0
    1.1318    0.2178   -0.0298 C   0  0  0  0  0  0  0  0  0  0  0  0
    2.1058    0.2147   -1.2128 C   0  0  0  0  0  0  0  0  0  0  0  0
    1.8765    0.7779    1.1835 C   0  0  0  0  0  0  0  0  0  0  0  0
   -0.1688    1.0359   -0.3310 C   0  0  0  0  0  0  0  0  0  0  0  0
   -0.2220    1.5846   -1.6285 O   0  0  0  0  0  0  0  0  0  0  0  0
   -2.4644    0.7031   -1.8301 H   0  0  0  0  0  0  0  0  0  0  0  0
   -3.3250   -0.4125   -0.7571 H   0  0  0  0  0  0  0  0  0  0  0  0
   -3.0260    1.2559   -0.2508 H   0  0  0  0  0  0  0  0  0  0  0  0
   -2.3166   -0.9264    1.4973 H   0  0  0  0  0  0  0  0  0  0  0  0
   -1.3588    0.4822    1.9442 H   0  0  0  0  0  0  0  0  0  0  0  0
    0.4447   -1.0267    2.3714 H   0  0  0  0  0  0  0  0  0  0  0  0
   -0.4799   -2.3482    1.6765 H   0  0  0  0  0  0  0  0  0  0  0  0
    1.3300   -1.9827    0.0444 H   0  0  0  0  0  0  0  0  0  0  0  0
   -0.3383   -1.0931   -1.8291 H   0  0  0  0  0  0  0  0  0  0  0  0
   -1.2074   -2.1496   -0.6954 H   0  0  0  0  0  0  0  0  0  0  0  0
    2.5265    1.2058   -1.3778 H   0  0  0  0  0  0  0  0  0  0  0  0
    1.6182   -0.1083   -2.1279 H   0  0  0  0  0  0  0  0  0  0  0  0
    2.9294   -0.4641   -1.0017 H   0  0  0  0  0  0  0  0  0  0  0  0
    1.2080    0.9643    2.0189 H   0  0  0  0  0  0  0  0  0  0  0  0
    2.3535    1.7219    0.9242 H   0  0  0  0  0  0  0  0  0  0  0  0
    2.6510    0.0839    1.5038 H   0  0  0  0  0  0  0  0  0  0  0  0
   -0.2945    1.8456    0.4045 H   0  0  0  0  0  0  0  0  0  0  0  0
    0.5148    2.1940   -1.7321 H   0  0  0  0  0  0  0  0  0  0  0  0
  1  2  1  0  0  0  0
  2  3  1  0  0  0  0
  3  4  1  0  0  0  0
  4  5  1  0  0  0  0
  2  6  1  0  0  0  0
  5  6  1  0  0  0  0
  5  7  1  0  0  0  0
  7  8  1  0  0  0  0
  7  9  1  0  0  0  0
  2 10  1  0  0  0  0
  7 10  1  0  0  0  0
 10 11  1  0  0  0  0
  1 12  1  0  0  0  0
  1 13  1  0  0  0  0
  1 14  1  0  0  0  0
  3 15  1  0  0  0  0
  3 16  1  0  0  0  0
  4 17  1  0  0  0  0
  4 18  1  0  0  0  0
  5 19  1  0  0  0  0
  6 20  1  0  0  0  0
  6 21  1  0  0  0  0
  8 22  1  0  0  0  0
  8 23  1  0  0  0  0
  8 24  1  0  0  0  0
  9 25  1  0  0  0  0
  9 26  1  0  0  0  0
  9 27  1  0  0  0  0
 10 28  1  0  0  0  0
 11 29  1  0  0  0  0
M  END
