 xtb: 6.7.1 (edcfbbe)
          07082601093D

 35 34  0     0  0            999 V2000
    4.4358    2.1970    0.6168 C   0  0  0  0  0  0  0  0  0  0  0  0
    3.5041    1.2330   -0.1074 C   0  0  0  0  0  0  0  0  0  0  0  0
    2.6399    0.4365    0.8672 C   0  0  0  0  0  0  0  0  0  0  0  0
    1.7140   -0.5411    0.1473 C   0  0  0  0  0  0  0  0  0  0  0  0
    0.8376   -1.3170    1.1279 C   0  0  0  0  0  0  0  0  0  0  0  0
    0.0279   -2.4360    0.4703 C   0  0  0  0  0  0  0  0  0  0  0  0
   -0.9240   -1.9785   -0.6359 C   0  0  0  0  0  0  0  0  0  0  0  0
   -1.9783   -0.9844   -0.1560 C   0  0  0  0  0  0  0  0  0  0  0  0
   -2.9732   -0.6452   -1.2637 C   0  0  0  0  0  0  0  0  0  0  0  0
   -4.0091    0.3778   -0.8040 C   0  0  0  0  0  0  0  0  0  0  0  0
   -3.4139    1.7498   -0.6162 C   0  0  0  0  0  0  0  0  0  0  0  0
   -2.4043    2.1634   -1.1173 O   0  0  0  0  0  0  0  0  0  0  0  0
   -4.1762    2.5084    0.1876 O   0  0  0  0  0  0  0  0  0  0  0  0
    3.8633    2.9067    1.2102 H   0  0  0  0  0  0  0  0  0  0  0  0
    5.1028    1.6545    1.2837 H   0  0  0  0  0  0  0  0  0  0  0  0
    5.0408    2.7542   -0.0949 H   0  0  0  0  0  0  0  0  0  0  0  0
    2.8572    1.7939   -0.7856 H   0  0  0  0  0  0  0  0  0  0  0  0
    4.0962    0.5415   -0.7115 H   0  0  0  0  0  0  0  0  0  0  0  0
    2.0395    1.1285    1.4630 H   0  0  0  0  0  0  0  0  0  0  0  0
    3.2867   -0.1147    1.5547 H   0  0  0  0  0  0  0  0  0  0  0  0
    2.3146   -1.2445   -0.4350 H   0  0  0  0  0  0  0  0  0  0  0  0
    1.0854    0.0177   -0.5477 H   0  0  0  0  0  0  0  0  0  0  0  0
    1.4777   -1.7671    1.8917 H   0  0  0  0  0  0  0  0  0  0  0  0
    0.1654   -0.6247    1.6377 H   0  0  0  0  0  0  0  0  0  0  0  0
   -0.5513   -2.9450    1.2454 H   0  0  0  0  0  0  0  0  0  0  0  0
    0.7214   -3.1666    0.0461 H   0  0  0  0  0  0  0  0  0  0  0  0
   -0.3531   -1.5313   -1.4507 H   0  0  0  0  0  0  0  0  0  0  0  0
   -1.4286   -2.8613   -1.0382 H   0  0  0  0  0  0  0  0  0  0  0  0
   -2.5129   -1.4070    0.6988 H   0  0  0  0  0  0  0  0  0  0  0  0
   -1.4931   -0.0639    0.1686 H   0  0  0  0  0  0  0  0  0  0  0  0
   -3.4851   -1.5532   -1.5882 H   0  0  0  0  0  0  0  0  0  0  0  0
   -2.4319   -0.2345   -2.1178 H   0  0  0  0  0  0  0  0  0  0  0  0
   -4.7975    0.4812   -1.5547 H   0  0  0  0  0  0  0  0  0  0  0  0
   -4.4826    0.0760    0.1314 H   0  0  0  0  0  0  0  0  0  0  0  0
   -3.7952    3.3963    0.2766 H   0  0  0  0  0  0  0  0  0  0  0  0
  1  2  1  0  0  0  0
  2  3  1  0  0  0  0
  3  4  1  0  0  0  0
  4  5  1  0  0  0  0
  5  6  1  0  0  0  0
  6  7  1  0  0  0  0
  7  8  1  0  0  0  0
  8  9  1  0  0  0  0
  9 10  1  0  0  0  0
 10 11  1  0  0  0  0
 11 12  2  0  0  0  0
 11 13  1  0  0  0  0
  1 14  1  0  0  0  0
  1 15  1  0  0  0  0
  1 16  1  0  0  0  0
  2 17  1  0  0  0  0
  2 18  1  0  0  0  0
  3 19  1  0  0  0  0
  3 20  1  0  0  0  0
  4 21  1  0  0  0  0
  4 22  1  0  0  0  0
  5 23  1  0  0  0  0
  5 24  1  0  0  0  0
  6 25  1  0  0  0  0
  6 26  1  0  0  0  0
  7 27  1  0  0  0  0
  7 28  1  0  0  0  0
  8 29  1  0  0  0  0
  8 30  1  0  0  0  0
  9 31  1  0  0  0  0
  9 32  1  0  0  0  0
 10 33  1  0  0  0  0
 10 34  1  0  0  0  0
 13 35  1  0  0  0  0
M  END
