 xtb: 6.7.1 (edcfbbe)
          07072618013D

 26 26  0     0  0            999 V2000
    3.7073   -0.7356    0.0940 C   0  0  0  0  0  0  0  0  0  0  0  0
    2.4566   -1.0999   -0.1164 C   0  0  0  0  0  0  0  0  0  0  0  0
    1.3699   -0.1625   -0.5356 C   0  0  0  0  0  0  0  0  0  0  0  0
    0.3811    0.1246    0.6159 C   0  0  0  0  0  0  0  0  0  0  0  0
   -0.4635   -1.0919    1.0157 C   0  0  0  0  0  0  0  0  0  0  0  0
   -1.4982   -1.4559   -0.0452 C   0  0  0  0  0  0  0  0  0  0  0  0
   -2.4158   -0.2698   -0.3198 C   0  0  0  0  0  0  0  0  0  0  0  0
   -1.6056    0.9455   -0.7748 C   0  0  0  0  0  0  0  0  0  0  0  0
   -0.5307    1.2524    0.2228 C   0  0  0  0  0  0  0  0  0  0  0  0
   -0.3143    2.3690    0.7760 N   0  0  0  0  0  0  0  0  0  0  0  0
   -1.1474    3.4363    0.4100 O   0  0  0  0  0  0  0  0  0  0  0  0
    4.0281    0.2850   -0.0370 H   0  0  0  0  0  0  0  0  0  0  0  0
    4.4642   -1.4373    0.4010 H   0  0  0  0  0  0  0  0  0  0  0  0
    2.1648   -2.1329    0.0200 H   0  0  0  0  0  0  0  0  0  0  0  0
    1.8102    0.7873   -0.8461 H   0  0  0  0  0  0  0  0  0  0  0  0
    0.8331   -0.5870   -1.3856 H   0  0  0  0  0  0  0  0  0  0  0  0
    0.9709    0.4522    1.4782 H   0  0  0  0  0  0  0  0  0  0  0  0
   -0.9847   -0.8523    1.9462 H   0  0  0  0  0  0  0  0  0  0  0  0
    0.1894   -1.9425    1.2150 H   0  0  0  0  0  0  0  0  0  0  0  0
   -2.0891   -2.3060    0.3033 H   0  0  0  0  0  0  0  0  0  0  0  0
   -1.0017   -1.7590   -0.9691 H   0  0  0  0  0  0  0  0  0  0  0  0
   -3.1497   -0.5276   -1.0864 H   0  0  0  0  0  0  0  0  0  0  0  0
   -2.9601   -0.0149    0.5928 H   0  0  0  0  0  0  0  0  0  0  0  0
   -2.2511    1.8175   -0.8901 H   0  0  0  0  0  0  0  0  0  0  0  0
   -1.1396    0.7357   -1.7415 H   0  0  0  0  0  0  0  0  0  0  0  0
   -0.8241    4.1696    0.9501 H   0  0  0  0  0  0  0  0  0  0  0  0
  1  2  2  0  0  0  0
  2  3  1  0  0  0  0
  3  4  1  0  0  0  0
  4  5  1  0  0  0  0
  5  6  1  0  0  0  0
  6  7  1  0  0  0  0
  7  8  1  0  0  0  0
  4  9  1  0  0  0  0
  8  9  1  0  0  0  0
  9 10  2  0  0  0  0
 10 11  1  0  0  0  0
  1 12  1  0  0  0  0
  1 13  1  0  0  0  0
  2 14  1  0  0  0  0
  3 15  1  0  0  0  0
  3 16  1  0  0  0  0
  4 17  1  0  0  0  0
  5 18  1  0  0  0  0
  5 19  1  0  0  0  0
  6 20  1  0  0  0  0
  6 21  1  0  0  0  0
  7 22  1  0  0  0  0
  7 23  1  0  0  0  0
  8 24  1  0  0  0  0
  8 25  1  0  0  0  0
 11 26  1  0  0  0  0
M  END
