 xtb: 6.7.1 (edcfbbe)
          07092601183D

 24 23  0     0  0            999 V2000
   -4.0960   -0.7593    0.5600 O   0  0  0  0  0  0  0  0  0  0  0  0
   -3.6930   -0.4965   -0.7571 C   0  0  0  0  0  0  0  0  0  0  0  0
   -2.6578    0.6266   -0.8156 C   0  0  0  0  0  0  0  0  0  0  0  0
   -1.5154    0.1849   -0.1131 O   0  0  0  0  0  0  0  0  0  0  0  0
   -0.4796    1.1336   -0.0812 C   0  0  0  0  0  0  0  0  0  0  0  0
    0.7409    0.5130    0.5892 C   0  0  0  0  0  0  0  0  0  0  0  0
    1.4195   -0.2787   -0.3600 O   0  0  0  0  0  0  0  0  0  0  0  0
    2.3610   -1.1844    0.1743 C   0  0  0  0  0  0  0  0  0  0  0  0
    3.6669   -0.4805    0.5637 C   0  0  0  0  0  0  0  0  0  0  0  0
    4.2100    0.2071   -0.5335 O   0  0  0  0  0  0  0  0  0  0  0  0
   -3.2929   -0.8918    1.0786 H   0  0  0  0  0  0  0  0  0  0  0  0
   -3.2612   -1.3964   -1.2163 H   0  0  0  0  0  0  0  0  0  0  0  0
   -4.5899   -0.2066   -1.3078 H   0  0  0  0  0  0  0  0  0  0  0  0
   -3.0613    1.5355   -0.3437 H   0  0  0  0  0  0  0  0  0  0  0  0
   -2.4046    0.8554   -1.8608 H   0  0  0  0  0  0  0  0  0  0  0  0
   -0.8004    2.0253    0.4802 H   0  0  0  0  0  0  0  0  0  0  0  0
   -0.2092    1.4394   -1.1018 H   0  0  0  0  0  0  0  0  0  0  0  0
    1.3896    1.3146    0.9705 H   0  0  0  0  0  0  0  0  0  0  0  0
    0.4088   -0.1062    1.4333 H   0  0  0  0  0  0  0  0  0  0  0  0
    1.9456   -1.7206    1.0377 H   0  0  0  0  0  0  0  0  0  0  0  0
    2.5602   -1.8946   -0.6323 H   0  0  0  0  0  0  0  0  0  0  0  0
    3.4827    0.2158    1.3965 H   0  0  0  0  0  0  0  0  0  0  0  0
    4.4078   -1.2159    0.8848 H   0  0  0  0  0  0  0  0  0  0  0  0
    3.4682    0.5803   -1.0291 H   0  0  0  0  0  0  0  0  0  0  0  0
  1  2  1  0  0  0  0
  2  3  1  0  0  0  0
  3  4  1  0  0  0  0
  4  5  1  0  0  0  0
  5  6  1  0  0  0  0
  6  7  1  0  0  0  0
  7  8  1  0  0  0  0
  8  9  1  0  0  0  0
  9 10  1  0  0  0  0
  1 11  1  0  0  0  0
  2 12  1  0  0  0  0
  2 13  1  0  0  0  0
  3 14  1  0  0  0  0
  3 15  1  0  0  0  0
  5 16  1  0  0  0  0
  5 17  1  0  0  0  0
  6 18  1  0  0  0  0
  6 19  1  0  0  0  0
  8 20  1  0  0  0  0
  8 21  1  0  0  0  0
  9 22  1  0  0  0  0
  9 23  1  0  0  0  0
 10 24  1  0  0  0  0
M  END
