 xtb: 6.7.1 (edcfbbe)
          07092602073D

 26 25  0     0  0            999 V2000
    3.5204   -0.5715   -0.7304 C   0  0  0  0  0  0  0  0  0  0  0  0
    2.1205   -1.1677   -0.7944 C   0  0  0  0  0  0  0  0  0  0  0  0
    1.0535   -0.1616   -0.3697 C   0  0  0  0  0  0  0  0  0  0  0  0
   -0.3418   -0.8068   -0.3339 C   0  0  0  0  0  0  0  0  0  0  0  0
   -0.4044   -1.8598    0.5860 O   0  0  0  0  0  0  0  0  0  0  0  0
   -1.4272    0.2653   -0.0579 C   0  0  0  0  0  0  0  0  0  0  0  0
   -2.8193   -0.3768   -0.0590 C   0  0  0  0  0  0  0  0  0  0  0  0
   -1.2071    0.9131    1.2961 C   0  0  0  0  0  0  0  0  0  0  0  0
   -1.4033    2.4039    1.3297 C   0  0  0  0  0  0  0  0  0  0  0  0
   -0.9060    0.2770    2.2794 O   0  0  0  0  0  0  0  0  0  0  0  0
    4.2608   -1.3036   -1.0436 H   0  0  0  0  0  0  0  0  0  0  0  0
    3.5977    0.2957   -1.3834 H   0  0  0  0  0  0  0  0  0  0  0  0
    3.7565   -0.2578    0.2841 H   0  0  0  0  0  0  0  0  0  0  0  0
    1.9109   -1.5025   -1.8128 H   0  0  0  0  0  0  0  0  0  0  0  0
    2.0580   -2.0387   -0.1401 H   0  0  0  0  0  0  0  0  0  0  0  0
    1.0430    0.6823   -1.0636 H   0  0  0  0  0  0  0  0  0  0  0  0
    1.2941    0.2190    0.6265 H   0  0  0  0  0  0  0  0  0  0  0  0
   -0.5478   -1.2626   -1.3111 H   0  0  0  0  0  0  0  0  0  0  0  0
   -0.3769   -1.4669    1.4741 H   0  0  0  0  0  0  0  0  0  0  0  0
   -1.3778    1.0256   -0.8419 H   0  0  0  0  0  0  0  0  0  0  0  0
   -2.8552   -1.1781    0.6748 H   0  0  0  0  0  0  0  0  0  0  0  0
   -3.0297   -0.7969   -1.0394 H   0  0  0  0  0  0  0  0  0  0  0  0
   -3.5857    0.3572    0.1808 H   0  0  0  0  0  0  0  0  0  0  0  0
   -1.3760    2.7685    2.3532 H   0  0  0  0  0  0  0  0  0  0  0  0
   -0.6063    2.8770    0.7582 H   0  0  0  0  0  0  0  0  0  0  0  0
   -2.3509    2.6666    0.8651 H   0  0  0  0  0  0  0  0  0  0  0  0
  1  2  1  0  0  0  0
  2  3  1  0  0  0  0
  3  4  1  0  0  0  0
  4  5  1  0  0  0  0
  4  6  1  0  0  0  0
  6  7  1  0  0  0  0
  6  8  1  0  0  0  0
  8  9  1  0  0  0  0
  8 10  2  0  0  0  0
  1 11  1  0  0  0  0
  1 12  1  0  0  0  0
  1 13  1  0  0  0  0
  2 14  1  0  0  0  0
  2 15  1  0  0  0  0
  3 16  1  0  0  0  0
  3 17  1  0  0  0  0
  4 18  1  0  0  0  0
  5 19  1  0  0  0  0
  6 20  1  0  0  0  0
  7 21  1  0  0  0  0
  7 22  1  0  0  0  0
  7 23  1  0  0  0  0
  9 24  1  0  0  0  0
  9 25  1  0  0  0  0
  9 26  1  0  0  0  0
M  END
