 xtb: 6.7.1 (edcfbbe)
          07072607263D

 32 33  0     0  0            999 V2000
    4.0685    0.4351   -0.3550 C   0  0  0  0  0  0  0  0  0  0  0  0
    2.5777    0.4003   -0.0323 C   0  0  0  0  0  0  0  0  0  0  0  0
    1.9053    1.7061   -0.4467 C   0  0  0  0  0  0  0  0  0  0  0  0
    1.9362   -0.7947   -0.7491 C   0  0  0  0  0  0  0  0  0  0  0  0
    0.5187   -0.9005   -0.4741 N   0  0  0  0  0  0  0  0  0  0  0  0
   -0.4496   -0.5786   -1.4005 C   0  0  0  0  0  0  0  0  0  0  0  0
   -0.2245   -0.2091   -2.5230 O   0  0  0  0  0  0  0  0  0  0  0  0
   -1.8051   -0.7694   -0.7457 C   0  0  0  0  0  0  0  0  0  0  0  0
   -2.6057    0.5480   -0.7804 C   0  0  0  0  0  0  0  0  0  0  0  0
   -3.7130    0.4928    0.2253 C   0  0  0  0  0  0  0  0  0  0  0  0
   -3.4344    0.0793    1.4517 C   0  0  0  0  0  0  0  0  0  0  0  0
   -2.0263   -0.3161    1.7706 C   0  0  0  0  0  0  0  0  0  0  0  0
   -1.4938   -1.2571    0.6715 C   0  0  0  0  0  0  0  0  0  0  0  0
    0.0208   -1.3331    0.7349 C   0  0  0  0  0  0  0  0  0  0  0  0
    0.6974   -1.6928    1.6624 O   0  0  0  0  0  0  0  0  0  0  0  0
    4.5486   -0.4939   -0.0568 H   0  0  0  0  0  0  0  0  0  0  0  0
    4.5498    1.2543    0.1732 H   0  0  0  0  0  0  0  0  0  0  0  0
    4.2214    0.5772   -1.4227 H   0  0  0  0  0  0  0  0  0  0  0  0
    2.4504    0.2567    1.0458 H   0  0  0  0  0  0  0  0  0  0  0  0
    1.9504    1.8307   -1.5265 H   0  0  0  0  0  0  0  0  0  0  0  0
    2.4026    2.5519    0.0218 H   0  0  0  0  0  0  0  0  0  0  0  0
    0.8596    1.7204   -0.1458 H   0  0  0  0  0  0  0  0  0  0  0  0
    2.0392   -0.6875   -1.8319 H   0  0  0  0  0  0  0  0  0  0  0  0
    2.4149   -1.7212   -0.4206 H   0  0  0  0  0  0  0  0  0  0  0  0
   -2.3631   -1.5213   -1.3101 H   0  0  0  0  0  0  0  0  0  0  0  0
   -1.9334    1.3749   -0.5270 H   0  0  0  0  0  0  0  0  0  0  0  0
   -2.9772    0.7221   -1.7890 H   0  0  0  0  0  0  0  0  0  0  0  0
   -4.7037    0.7913   -0.0773 H   0  0  0  0  0  0  0  0  0  0  0  0
   -4.1802    0.0136    2.2274 H   0  0  0  0  0  0  0  0  0  0  0  0
   -1.9481   -0.8063    2.7394 H   0  0  0  0  0  0  0  0  0  0  0  0
   -1.3989    0.5814    1.7993 H   0  0  0  0  0  0  0  0  0  0  0  0
   -1.9046   -2.2543    0.8498 H   0  0  0  0  0  0  0  0  0  0  0  0
  1  2  1  0  0  0  0
  2  3  1  0  0  0  0
  2  4  1  0  0  0  0
  4  5  1  0  0  0  0
  5  6  1  0  0  0  0
  6  7  2  0  0  0  0
  6  8  1  0  0  0  0
  8  9  1  0  0  0  0
  9 10  1  0  0  0  0
 10 11  2  0  0  0  0
 11 12  1  0  0  0  0
  8 13  1  0  0  0  0
 12 13  1  0  0  0  0
  5 14  1  0  0  0  0
 13 14  1  0  0  0  0
 14 15  2  0  0  0  0
  1 16  1  0  0  0  0
  1 17  1  0  0  0  0
  1 18  1  0  0  0  0
  2 19  1  0  0  0  0
  3 20  1  0  0  0  0
  3 21  1  0  0  0  0
  3 22  1  0  0  0  0
  4 23  1  0  0  0  0
  4 24  1  0  0  0  0
  8 25  1  0  0  0  0
  9 26  1  0  0  0  0
  9 27  1  0  0  0  0
 10 28  1  0  0  0  0
 11 29  1  0  0  0  0
 12 30  1  0  0  0  0
 12 31  1  0  0  0  0
 13 32  1  0  0  0  0
M  END
