 xtb: 6.7.1 (edcfbbe)
          07092601233D

 26 25  0     0  0            999 V2000
    3.4757   -1.0173   -0.8815 C   0  0  0  0  0  0  0  0  0  0  0  0
    3.1610    0.2773   -0.1428 C   0  0  0  0  0  0  0  0  0  0  0  0
    1.6631    0.5919   -0.1799 C   0  0  0  0  0  0  0  0  0  0  0  0
    0.8755   -0.3760    0.6658 C   0  0  0  0  0  0  0  0  0  0  0  0
    1.2646   -0.8074    1.7259 O   0  0  0  0  0  0  0  0  0  0  0  0
   -0.5022   -0.7816    0.1575 C   0  0  0  0  0  0  0  0  0  0  0  0
   -0.9959   -1.8455    0.9230 O   0  0  0  0  0  0  0  0  0  0  0  0
   -1.4402    0.4427    0.2304 C   0  0  0  0  0  0  0  0  0  0  0  0
   -2.8318    0.0953   -0.2921 C   0  0  0  0  0  0  0  0  0  0  0  0
   -3.8007    1.2579   -0.1220 C   0  0  0  0  0  0  0  0  0  0  0  0
    4.5428   -1.2224   -0.8484 H   0  0  0  0  0  0  0  0  0  0  0  0
    3.1713   -0.9495   -1.9242 H   0  0  0  0  0  0  0  0  0  0  0  0
    2.9523   -1.8529   -0.4226 H   0  0  0  0  0  0  0  0  0  0  0  0
    3.7128    1.1030   -0.5958 H   0  0  0  0  0  0  0  0  0  0  0  0
    3.4722    0.1879    0.8990 H   0  0  0  0  0  0  0  0  0  0  0  0
    1.2927    0.5870   -1.2057 H   0  0  0  0  0  0  0  0  0  0  0  0
    1.4953    1.5876    0.2410 H   0  0  0  0  0  0  0  0  0  0  0  0
   -0.4300   -1.1192   -0.8851 H   0  0  0  0  0  0  0  0  0  0  0  0
   -0.4573   -1.8764    1.7324 H   0  0  0  0  0  0  0  0  0  0  0  0
   -1.0162    1.2629   -0.3509 H   0  0  0  0  0  0  0  0  0  0  0  0
   -1.5131    0.7580    1.2738 H   0  0  0  0  0  0  0  0  0  0  0  0
   -3.1982   -0.7773    0.2498 H   0  0  0  0  0  0  0  0  0  0  0  0
   -2.7616   -0.1732   -1.3485 H   0  0  0  0  0  0  0  0  0  0  0  0
   -4.7836    0.9911   -0.5019 H   0  0  0  0  0  0  0  0  0  0  0  0
   -3.8997    1.5229    0.9283 H   0  0  0  0  0  0  0  0  0  0  0  0
   -3.4489    2.1335   -0.6642 H   0  0  0  0  0  0  0  0  0  0  0  0
  1  2  1  0  0  0  0
  2  3  1  0  0  0  0
  3  4  1  0  0  0  0
  4  5  2  0  0  0  0
  4  6  1  0  0  0  0
  6  7  1  0  0  0  0
  6  8  1  0  0  0  0
  8  9  1  0  0  0  0
  9 10  1  0  0  0  0
  1 11  1  0  0  0  0
  1 12  1  0  0  0  0
  1 13  1  0  0  0  0
  2 14  1  0  0  0  0
  2 15  1  0  0  0  0
  3 16  1  0  0  0  0
  3 17  1  0  0  0  0
  6 18  1  0  0  0  0
  7 19  1  0  0  0  0
  8 20  1  0  0  0  0
  8 21  1  0  0  0  0
  9 22  1  0  0  0  0
  9 23  1  0  0  0  0
 10 24  1  0  0  0  0
 10 25  1  0  0  0  0
 10 26  1  0  0  0  0
M  END
