 xtb: 6.7.1 (edcfbbe)
          07082618433D

 17 17  0     0  0            999 V2000
   -2.8178    0.3555    0.4028 O   0  0  0  0  0  0  0  0  0  0  0  0
   -1.7493    0.3317   -0.5048 C   0  0  0  0  0  0  0  0  0  0  0  0
   -0.5961   -0.5360    0.0178 C   0  0  0  0  0  0  0  0  0  0  0  0
    0.6023   -0.5834   -0.9461 C   0  0  0  0  0  0  0  0  0  0  0  0
    1.7973   -0.2767   -0.0417 C   0  0  0  0  0  0  0  0  0  0  0  0
    1.1451    0.5811    1.0403 C   0  0  0  0  0  0  0  0  0  0  0  0
   -0.1248    0.0023    1.2526 O   0  0  0  0  0  0  0  0  0  0  0  0
   -2.4396    0.5038    1.2796 H   0  0  0  0  0  0  0  0  0  0  0  0
   -2.1366   -0.0758   -1.4414 H   0  0  0  0  0  0  0  0  0  0  0  0
   -1.3771    1.3524   -0.6861 H   0  0  0  0  0  0  0  0  0  0  0  0
   -0.9879   -1.5355    0.2431 H   0  0  0  0  0  0  0  0  0  0  0  0
    0.4925    0.1893   -1.7086 H   0  0  0  0  0  0  0  0  0  0  0  0
    0.6871   -1.5482   -1.4398 H   0  0  0  0  0  0  0  0  0  0  0  0
    2.6015    0.2412   -0.5582 H   0  0  0  0  0  0  0  0  0  0  0  0
    2.1865   -1.1945    0.3995 H   0  0  0  0  0  0  0  0  0  0  0  0
    1.0412    1.6216    0.6977 H   0  0  0  0  0  0  0  0  0  0  0  0
    1.6757    0.5714    1.9933 H   0  0  0  0  0  0  0  0  0  0  0  0
  1  2  1  0  0  0  0
  2  3  1  0  0  0  0
  3  4  1  0  0  0  0
  4  5  1  0  0  0  0
  5  6  1  0  0  0  0
  3  7  1  0  0  0  0
  6  7  1  0  0  0  0
  1  8  1  0  0  0  0
  2  9  1  0  0  0  0
  2 10  1  0  0  0  0
  3 11  1  0  0  0  0
  4 12  1  0  0  0  0
  4 13  1  0  0  0  0
  5 14  1  0  0  0  0
  5 15  1  0  0  0  0
  6 16  1  0  0  0  0
  6 17  1  0  0  0  0
M  END
