 xtb: 6.7.1 (edcfbbe)
          07072619283D

 31 30  0     0  0            999 V2000
   -3.8703   -0.9060    1.6245 C   0  0  0  0  0  0  0  0  0  0  0  0
   -2.8535   -1.0161    0.4892 C   0  0  0  0  0  0  0  0  0  0  0  0
   -3.4916   -0.5623   -0.8214 C   0  0  0  0  0  0  0  0  0  0  0  0
   -1.6073   -0.1940    0.8313 C   0  0  0  0  0  0  0  0  0  0  0  0
   -0.4495   -0.3943   -0.1432 C   0  0  0  0  0  0  0  0  0  0  0  0
    0.7881    0.3944    0.2969 C   0  0  0  0  0  0  0  0  0  0  0  0
    0.4528    1.7619    0.3110 O   0  0  0  0  0  0  0  0  0  0  0  0
    1.9762    0.1199   -0.6373 C   0  0  0  0  0  0  0  0  0  0  0  0
    3.3034    0.6397   -0.0777 C   0  0  0  0  0  0  0  0  0  0  0  0
    4.4747    0.2363   -0.9717 C   0  0  0  0  0  0  0  0  0  0  0  0
    3.2130    2.0530    0.0303 O   0  0  0  0  0  0  0  0  0  0  0  0
   -3.4416   -1.2532    2.5620 H   0  0  0  0  0  0  0  0  0  0  0  0
   -4.7530   -1.5044    1.4095 H   0  0  0  0  0  0  0  0  0  0  0  0
   -4.1798    0.1290    1.7523 H   0  0  0  0  0  0  0  0  0  0  0  0
   -2.5594   -2.0679    0.3883 H   0  0  0  0  0  0  0  0  0  0  0  0
   -2.8243   -0.7307   -1.6621 H   0  0  0  0  0  0  0  0  0  0  0  0
   -3.7297    0.4980   -0.7762 H   0  0  0  0  0  0  0  0  0  0  0  0
   -4.4115   -1.1140   -1.0048 H   0  0  0  0  0  0  0  0  0  0  0  0
   -1.8602    0.8665    0.8535 H   0  0  0  0  0  0  0  0  0  0  0  0
   -1.2674   -0.4740    1.8318 H   0  0  0  0  0  0  0  0  0  0  0  0
   -0.1951   -1.4546   -0.2040 H   0  0  0  0  0  0  0  0  0  0  0  0
   -0.7329   -0.0448   -1.1357 H   0  0  0  0  0  0  0  0  0  0  0  0
    1.0666    0.0746    1.3188 H   0  0  0  0  0  0  0  0  0  0  0  0
    1.2818    2.2599    0.3017 H   0  0  0  0  0  0  0  0  0  0  0  0
    2.0682   -0.9541   -0.8003 H   0  0  0  0  0  0  0  0  0  0  0  0
    1.7838    0.6064   -1.5952 H   0  0  0  0  0  0  0  0  0  0  0  0
    3.4562    0.2136    0.9290 H   0  0  0  0  0  0  0  0  0  0  0  0
    5.4133    0.6077   -0.5622 H   0  0  0  0  0  0  0  0  0  0  0  0
    4.5362   -0.8455   -1.0467 H   0  0  0  0  0  0  0  0  0  0  0  0
    4.3407    0.6521   -1.9677 H   0  0  0  0  0  0  0  0  0  0  0  0
    4.0720    2.4029    0.2886 H   0  0  0  0  0  0  0  0  0  0  0  0
  1  2  1  0  0  0  0
  2  3  1  0  0  0  0
  2  4  1  0  0  0  0
  4  5  1  0  0  0  0
  5  6  1  0  0  0  0
  6  7  1  0  0  0  0
  6  8  1  0  0  0  0
  8  9  1  0  0  0  0
  9 10  1  0  0  0  0
  9 11  1  0  0  0  0
  1 12  1  0  0  0  0
  1 13  1  0  0  0  0
  1 14  1  0  0  0  0
  2 15  1  0  0  0  0
  3 16  1  0  0  0  0
  3 17  1  0  0  0  0
  3 18  1  0  0  0  0
  4 19  1  0  0  0  0
  4 20  1  0  0  0  0
  5 21  1  0  0  0  0
  5 22  1  0  0  0  0
  6 23  1  0  0  0  0
  7 24  1  0  0  0  0
  8 25  1  0  0  0  0
  8 26  1  0  0  0  0
  9 27  1  0  0  0  0
 10 28  1  0  0  0  0
 10 29  1  0  0  0  0
 10 30  1  0  0  0  0
 11 31  1  0  0  0  0
M  END
