 xtb: 6.7.1 (edcfbbe)
          07082600413D

 40 40  0     0  0            999 V2000
    6.1268    0.0003    0.3558 C   0  0  0  0  0  0  0  0  0  0  0  0
    4.6434   -0.3019    0.1805 C   0  0  0  0  0  0  0  0  0  0  0  0
    4.0759    0.3830   -1.0606 C   0  0  0  0  0  0  0  0  0  0  0  0
    2.6122    0.0364   -1.3332 C   0  0  0  0  0  0  0  0  0  0  0  0
    1.6598    0.5757   -0.2696 C   0  0  0  0  0  0  0  0  0  0  0  0
    0.1991    0.3696   -0.6641 C   0  0  0  0  0  0  0  0  0  0  0  0
   -0.7312    0.9025    0.4166 C   0  0  0  0  0  0  0  0  0  0  0  0
   -0.3058    1.3597    1.4616 O   0  0  0  0  0  0  0  0  0  0  0  0
   -2.0603    0.8687    0.1520 N   0  0  0  0  0  0  0  0  0  0  0  0
   -2.9960    1.3636    1.1425 C   0  0  0  0  0  0  0  0  0  0  0  0
   -3.8719    0.2276    1.6649 C   0  0  0  0  0  0  0  0  0  0  0  0
   -4.5770   -0.4649    0.5013 C   0  0  0  0  0  0  0  0  0  0  0  0
   -3.5764   -0.9228   -0.5654 C   0  0  0  0  0  0  0  0  0  0  0  0
   -2.7017   -2.0762   -0.0799 C   0  0  0  0  0  0  0  0  0  0  0  0
   -2.7107    0.2754   -0.9902 C   0  0  0  0  0  0  0  0  0  0  0  0
    6.5166   -0.4917    1.2440 H   0  0  0  0  0  0  0  0  0  0  0  0
    6.6936   -0.3473   -0.5057 H   0  0  0  0  0  0  0  0  0  0  0  0
    6.2866    1.0714    0.4595 H   0  0  0  0  0  0  0  0  0  0  0  0
    4.5011   -1.3818    0.0932 H   0  0  0  0  0  0  0  0  0  0  0  0
    4.1036    0.0366    1.0657 H   0  0  0  0  0  0  0  0  0  0  0  0
    4.1727    1.4654   -0.9490 H   0  0  0  0  0  0  0  0  0  0  0  0
    4.6727    0.0864   -1.9275 H   0  0  0  0  0  0  0  0  0  0  0  0
    2.3322    0.4571   -2.3032 H   0  0  0  0  0  0  0  0  0  0  0  0
    2.5052   -1.0494   -1.4024 H   0  0  0  0  0  0  0  0  0  0  0  0
    1.8351    0.0807    0.6853 H   0  0  0  0  0  0  0  0  0  0  0  0
    1.8371    1.6421   -0.1209 H   0  0  0  0  0  0  0  0  0  0  0  0
   -0.0039    0.8925   -1.6021 H   0  0  0  0  0  0  0  0  0  0  0  0
    0.0075   -0.6956   -0.8133 H   0  0  0  0  0  0  0  0  0  0  0  0
   -2.4142    1.8122    1.9491 H   0  0  0  0  0  0  0  0  0  0  0  0
   -3.6228    2.1347    0.6781 H   0  0  0  0  0  0  0  0  0  0  0  0
   -3.2504   -0.4861    2.2063 H   0  0  0  0  0  0  0  0  0  0  0  0
   -4.6080    0.6289    2.3628 H   0  0  0  0  0  0  0  0  0  0  0  0
   -5.1485   -1.3210    0.8646 H   0  0  0  0  0  0  0  0  0  0  0  0
   -5.2812    0.2358    0.0448 H   0  0  0  0  0  0  0  0  0  0  0  0
   -4.1366   -1.2605   -1.4446 H   0  0  0  0  0  0  0  0  0  0  0  0
   -3.3187   -2.8851    0.3043 H   0  0  0  0  0  0  0  0  0  0  0  0
   -2.0305   -1.7487    0.7098 H   0  0  0  0  0  0  0  0  0  0  0  0
   -2.1016   -2.4662   -0.8996 H   0  0  0  0  0  0  0  0  0  0  0  0
   -3.3554    1.0355   -1.4518 H   0  0  0  0  0  0  0  0  0  0  0  0
   -1.9784   -0.0426   -1.7294 H   0  0  0  0  0  0  0  0  0  0  0  0
  1  2  1  0  0  0  0
  2  3  1  0  0  0  0
  3  4  1  0  0  0  0
  4  5  1  0  0  0  0
  5  6  1  0  0  0  0
  6  7  1  0  0  0  0
  7  8  2  0  0  0  0
  7  9  4  0  0  0  0
  9 10  1  0  0  0  0
 10 11  1  0  0  0  0
 11 12  1  0  0  0  0
 12 13  1  0  0  0  0
 13 14  1  0  0  0  0
  9 15  1  0  0  0  0
 13 15  1  0  0  0  0
  1 16  1  0  0  0  0
  1 17  1  0  0  0  0
  1 18  1  0  0  0  0
  2 19  1  0  0  0  0
  2 20  1  0  0  0  0
  3 21  1  0  0  0  0
  3 22  1  0  0  0  0
  4 23  1  0  0  0  0
  4 24  1  0  0  0  0
  5 25  1  0  0  0  0
  5 26  1  0  0  0  0
  6 27  1  0  0  0  0
  6 28  1  0  0  0  0
 10 29  1  0  0  0  0
 10 30  1  0  0  0  0
 11 31  1  0  0  0  0
 11 32  1  0  0  0  0
 12 33  1  0  0  0  0
 12 34  1  0  0  0  0
 13 35  1  0  0  0  0
 14 36  1  0  0  0  0
 14 37  1  0  0  0  0
 14 38  1  0  0  0  0
 15 39  1  0  0  0  0
 15 40  1  0  0  0  0
M  END
