 xtb: 6.7.1 (edcfbbe)
          07082606163D

 19 19  0     0  0            999 V2000
    2.3198    0.7257    1.3691 O   0  0  0  0  0  0  0  0  0  0  0  0
    2.4466   -0.0337    0.1961 C   0  0  0  0  0  0  0  0  0  0  0  0
    1.3728   -1.1313    0.0755 C   0  0  0  0  0  0  0  0  0  0  0  0
    0.0137   -0.5154   -0.0803 C   0  0  0  0  0  0  0  0  0  0  0  0
   -0.7785   -0.2540    1.0326 C   0  0  0  0  0  0  0  0  0  0  0  0
   -2.0101    0.3632    0.9012 C   0  0  0  0  0  0  0  0  0  0  0  0
   -2.4501    0.7248   -0.3597 C   0  0  0  0  0  0  0  0  0  0  0  0
   -4.1488    1.5721   -0.5542 Br  0  0  0  0  0  0  0  0  0  0  0  0
   -1.6792    0.4798   -1.4835 C   0  0  0  0  0  0  0  0  0  0  0  0
   -0.4506   -0.1362   -1.3355 C   0  0  0  0  0  0  0  0  0  0  0  0
    1.4439    1.1300    1.3836 H   0  0  0  0  0  0  0  0  0  0  0  0
    3.4372   -0.4906    0.2485 H   0  0  0  0  0  0  0  0  0  0  0  0
    2.4051    0.6146   -0.6919 H   0  0  0  0  0  0  0  0  0  0  0  0
    1.4072   -1.7488    0.9742 H   0  0  0  0  0  0  0  0  0  0  0  0
    1.6103   -1.7515   -0.7893 H   0  0  0  0  0  0  0  0  0  0  0  0
   -0.4349   -0.5440    2.0151 H   0  0  0  0  0  0  0  0  0  0  0  0
   -2.6214    0.5593    1.7686 H   0  0  0  0  0  0  0  0  0  0  0  0
   -2.0366    0.7663   -2.4606 H   0  0  0  0  0  0  0  0  0  0  0  0
    0.1537   -0.3303   -2.2095 H   0  0  0  0  0  0  0  0  0  0  0  0
  1  2  1  0  0  0  0
  2  3  1  0  0  0  0
  3  4  1  0  0  0  0
  4  5  4  0  0  0  0
  5  6  4  0  0  0  0
  6  7  4  0  0  0  0
  7  8  1  0  0  0  0
  7  9  4  0  0  0  0
  4 10  4  0  0  0  0
  9 10  4  0  0  0  0
  1 11  1  0  0  0  0
  2 12  1  0  0  0  0
  2 13  1  0  0  0  0
  3 14  1  0  0  0  0
  3 15  1  0  0  0  0
  5 16  1  0  0  0  0
  6 17  1  0  0  0  0
  9 18  1  0  0  0  0
 10 19  1  0  0  0  0
M  END
