 xtb: 6.7.1 (edcfbbe)
          07092613453D

 20 20  0     0  0            999 V2000
    3.8157    0.1022    0.3177 C   0  0  0  0  0  0  0  0  0  0  0  0
    2.4992   -0.3471    0.0432 O   0  0  0  0  0  0  0  0  0  0  0  0
    1.5173    0.5349    0.2978 C   0  0  0  0  0  0  0  0  0  0  0  0
    1.7313    1.6424    0.7300 O   0  0  0  0  0  0  0  0  0  0  0  0
    0.1724   -0.0011   -0.0105 C   0  0  0  0  0  0  0  0  0  0  0  0
   -0.0095   -1.2708   -0.5539 C   0  0  0  0  0  0  0  0  0  0  0  0
   -1.2930   -1.7092   -0.8251 C   0  0  0  0  0  0  0  0  0  0  0  0
   -2.3856   -0.9046   -0.5637 C   0  0  0  0  0  0  0  0  0  0  0  0
   -2.2164    0.3700   -0.0159 C   0  0  0  0  0  0  0  0  0  0  0  0
   -3.3044    1.1454    0.3126 N   0  0  0  0  0  0  0  0  0  0  0  0
   -0.9229    0.8110    0.2547 C   0  0  0  0  0  0  0  0  0  0  0  0
    4.0468    0.9886   -0.2772 H   0  0  0  0  0  0  0  0  0  0  0  0
    4.4794   -0.7180    0.0554 H   0  0  0  0  0  0  0  0  0  0  0  0
    3.9180    0.3555    1.3752 H   0  0  0  0  0  0  0  0  0  0  0  0
    0.8445   -1.8946   -0.7596 H   0  0  0  0  0  0  0  0  0  0  0  0
   -1.4467   -2.6905   -1.2494 H   0  0  0  0  0  0  0  0  0  0  0  0
   -3.3842   -1.2571   -0.7802 H   0  0  0  0  0  0  0  0  0  0  0  0
   -4.1762    0.9265   -0.1398 H   0  0  0  0  0  0  0  0  0  0  0  0
   -3.1320    2.1256    0.4615 H   0  0  0  0  0  0  0  0  0  0  0  0
   -0.7537    1.7907    0.6764 H   0  0  0  0  0  0  0  0  0  0  0  0
  1  2  1  0  0  0  0
  2  3  1  0  0  0  0
  3  4  2  0  0  0  0
  3  5  1  0  0  0  0
  5  6  4  0  0  0  0
  6  7  4  0  0  0  0
  7  8  4  0  0  0  0
  8  9  4  0  0  0  0
  9 10  1  0  0  0  0
  5 11  4  0  0  0  0
  9 11  4  0  0  0  0
  1 12  1  0  0  0  0
  1 13  1  0  0  0  0
  1 14  1  0  0  0  0
  6 15  1  0  0  0  0
  7 16  1  0  0  0  0
  8 17  1  0  0  0  0
 10 18  1  0  0  0  0
 10 19  1  0  0  0  0
 11 20  1  0  0  0  0
M  END
