 xtb: 6.7.1 (edcfbbe)
          07072621433D

 23 23  0     0  0            999 V2000
    3.9089    0.2785   -0.7239 C   0  0  0  0  0  0  0  0  0  0  0  0
    3.0137   -0.7959   -0.5762 O   0  0  0  0  0  0  0  0  0  0  0  0
    1.7266   -0.5261   -0.2174 C   0  0  0  0  0  0  0  0  0  0  0  0
    0.8861   -1.6336   -0.0918 C   0  0  0  0  0  0  0  0  0  0  0  0
   -0.4334   -1.4724    0.2708 C   0  0  0  0  0  0  0  0  0  0  0  0
   -0.9518   -0.2058    0.5151 C   0  0  0  0  0  0  0  0  0  0  0  0
   -2.4050   -0.0154    0.8874 C   0  0  0  0  0  0  0  0  0  0  0  0
   -3.2259    0.3306   -0.3551 C   0  0  0  0  0  0  0  0  0  0  0  0
   -2.5885    1.0365    1.8170 O   0  0  0  0  0  0  0  0  0  0  0  0
   -0.1141    0.8909    0.3867 C   0  0  0  0  0  0  0  0  0  0  0  0
    1.2144    0.7426    0.0267 C   0  0  0  0  0  0  0  0  0  0  0  0
    4.8608   -0.1677   -1.0077 H   0  0  0  0  0  0  0  0  0  0  0  0
    4.0345    0.8304    0.2135 H   0  0  0  0  0  0  0  0  0  0  0  0
    3.5845    0.9676   -1.5106 H   0  0  0  0  0  0  0  0  0  0  0  0
    1.2974   -2.6122   -0.2826 H   0  0  0  0  0  0  0  0  0  0  0  0
   -1.0715   -2.3393    0.3660 H   0  0  0  0  0  0  0  0  0  0  0  0
   -2.7895   -0.9562    1.3184 H   0  0  0  0  0  0  0  0  0  0  0  0
   -4.2656    0.4767   -0.0759 H   0  0  0  0  0  0  0  0  0  0  0  0
   -2.8492    1.2509   -0.7930 H   0  0  0  0  0  0  0  0  0  0  0  0
   -3.1533   -0.4707   -1.0849 H   0  0  0  0  0  0  0  0  0  0  0  0
   -2.0044    0.8905    2.5686 H   0  0  0  0  0  0  0  0  0  0  0  0
   -0.5087    1.8788    0.5756 H   0  0  0  0  0  0  0  0  0  0  0  0
    1.8340    1.6213   -0.0614 H   0  0  0  0  0  0  0  0  0  0  0  0
  1  2  1  0  0  0  0
  2  3  1  0  0  0  0
  3  4  4  0  0  0  0
  4  5  4  0  0  0  0
  5  6  4  0  0  0  0
  6  7  1  0  0  0  0
  7  8  1  0  0  0  0
  7  9  1  0  0  0  0
  6 10  4  0  0  0  0
  3 11  4  0  0  0  0
 10 11  4  0  0  0  0
  1 12  1  0  0  0  0
  1 13  1  0  0  0  0
  1 14  1  0  0  0  0
  4 15  1  0  0  0  0
  5 16  1  0  0  0  0
  7 17  1  0  0  0  0
  8 18  1  0  0  0  0
  8 19  1  0  0  0  0
  8 20  1  0  0  0  0
  9 21  1  0  0  0  0
 10 22  1  0  0  0  0
 11 23  1  0  0  0  0
M  END
