 xtb: 6.7.1 (edcfbbe)
          07062621503D

 42 41  0     0  0            999 V2000
    4.9974    1.7263   -1.5958 C   0  0  0  0  0  0  0  0  0  0  0  0
    4.1496    0.5967   -1.7389 O   0  0  0  0  0  0  0  0  0  0  0  0
    2.8447    0.8040   -1.5333 C   0  0  0  0  0  0  0  0  0  0  0  0
    2.3808    1.8830   -1.2619 O   0  0  0  0  0  0  0  0  0  0  0  0
    2.0543   -0.4718   -1.6751 C   0  0  0  0  0  0  0  0  0  0  0  0
    2.3393   -1.4412   -0.5194 C   0  0  0  0  0  0  0  0  0  0  0  0
    2.1961   -0.8175    0.8715 C   0  0  0  0  0  0  0  0  0  0  0  0
    0.9104   -0.0100    1.0673 C   0  0  0  0  0  0  0  0  0  0  0  0
   -0.3339   -0.8561    0.8225 C   0  0  0  0  0  0  0  0  0  0  0  0
   -0.2588   -2.0711    0.7650 O   0  0  0  0  0  0  0  0  0  0  0  0
   -1.5122   -0.2019    0.6585 N   0  0  0  0  0  0  0  0  0  0  0  0
   -1.6808    1.2333    0.8484 C   0  0  0  0  0  0  0  0  0  0  0  0
   -2.8062    1.5494    1.8389 C   0  0  0  0  0  0  0  0  0  0  0  0
   -1.8899    1.9519   -0.4870 C   0  0  0  0  0  0  0  0  0  0  0  0
   -2.6896   -0.9668    0.2312 C   0  0  0  0  0  0  0  0  0  0  0  0
   -2.4380   -1.6671   -1.1050 C   0  0  0  0  0  0  0  0  0  0  0  0
   -3.1358   -1.9633    1.3011 C   0  0  0  0  0  0  0  0  0  0  0  0
    4.7283    2.4970   -2.3212 H   0  0  0  0  0  0  0  0  0  0  0  0
    4.9065    2.1450   -0.5912 H   0  0  0  0  0  0  0  0  0  0  0  0
    6.0099    1.3728   -1.7720 H   0  0  0  0  0  0  0  0  0  0  0  0
    0.9939   -0.2222   -1.7061 H   0  0  0  0  0  0  0  0  0  0  0  0
    2.3343   -0.9521   -2.6135 H   0  0  0  0  0  0  0  0  0  0  0  0
    1.6437   -2.2762   -0.6003 H   0  0  0  0  0  0  0  0  0  0  0  0
    3.3548   -1.8278   -0.6221 H   0  0  0  0  0  0  0  0  0  0  0  0
    2.2266   -1.6249    1.6049 H   0  0  0  0  0  0  0  0  0  0  0  0
    3.0419   -0.1520    1.0642 H   0  0  0  0  0  0  0  0  0  0  0  0
    0.8863    0.3550    2.0981 H   0  0  0  0  0  0  0  0  0  0  0  0
    0.9274    0.8500    0.3992 H   0  0  0  0  0  0  0  0  0  0  0  0
   -0.7629    1.6163    1.2948 H   0  0  0  0  0  0  0  0  0  0  0  0
   -2.7709    2.6058    2.0931 H   0  0  0  0  0  0  0  0  0  0  0  0
   -2.6748    0.9717    2.7506 H   0  0  0  0  0  0  0  0  0  0  0  0
   -3.7892    1.3352    1.4289 H   0  0  0  0  0  0  0  0  0  0  0  0
   -2.7936    1.6085   -0.9843 H   0  0  0  0  0  0  0  0  0  0  0  0
   -1.0419    1.7767   -1.1448 H   0  0  0  0  0  0  0  0  0  0  0  0
   -1.9760    3.0221   -0.3185 H   0  0  0  0  0  0  0  0  0  0  0  0
   -3.4924   -0.2411    0.0805 H   0  0  0  0  0  0  0  0  0  0  0  0
   -2.1009   -0.9507   -1.8514 H   0  0  0  0  0  0  0  0  0  0  0  0
   -1.6818   -2.4367   -0.9884 H   0  0  0  0  0  0  0  0  0  0  0  0
   -3.3585   -2.1282   -1.4542 H   0  0  0  0  0  0  0  0  0  0  0  0
   -4.0494   -2.4587    0.9820 H   0  0  0  0  0  0  0  0  0  0  0  0
   -2.3632   -2.7098    1.4549 H   0  0  0  0  0  0  0  0  0  0  0  0
   -3.3256   -1.4536    2.2426 H   0  0  0  0  0  0  0  0  0  0  0  0
  1  2  1  0  0  0  0
  2  3  1  0  0  0  0
  3  4  2  0  0  0  0
  3  5  1  0  0  0  0
  5  6  1  0  0  0  0
  6  7  1  0  0  0  0
  7  8  1  0  0  0  0
  8  9  1  0  0  0  0
  9 10  2  0  0  0  0
  9 11  4  0  0  0  0
 11 12  1  0  0  0  0
 12 13  1  0  0  0  0
 12 14  1  0  0  0  0
 11 15  1  0  0  0  0
 15 16  1  0  0  0  0
 15 17  1  0  0  0  0
  1 18  1  0  0  0  0
  1 19  1  0  0  0  0
  1 20  1  0  0  0  0
  5 21  1  0  0  0  0
  5 22  1  0  0  0  0
  6 23  1  0  0  0  0
  6 24  1  0  0  0  0
  7 25  1  0  0  0  0
  7 26  1  0  0  0  0
  8 27  1  0  0  0  0
  8 28  1  0  0  0  0
 12 29  1  0  0  0  0
 13 30  1  0  0  0  0
 13 31  1  0  0  0  0
 13 32  1  0  0  0  0
 14 33  1  0  0  0  0
 14 34  1  0  0  0  0
 14 35  1  0  0  0  0
 15 36  1  0  0  0  0
 16 37  1  0  0  0  0
 16 38  1  0  0  0  0
 16 39  1  0  0  0  0
 17 40  1  0  0  0  0
 17 41  1  0  0  0  0
 17 42  1  0  0  0  0
M  END
