 xtb: 6.7.1 (edcfbbe)
          07062621203D

 58 60  0     0  0            999 V2000
    5.4026    1.6346    2.1832 C   0  0  0  0  0  0  0  0  0  0  0  0
    6.2754    2.3963    1.2310 C   0  0  0  0  0  0  0  0  0  0  0  0
    7.7341    2.3600    1.5830 C   0  0  0  0  0  0  0  0  0  0  0  0
    5.8391    3.0526    0.1624 C   0  0  0  0  0  0  0  0  0  0  0  0
    4.4222    3.1514   -0.3152 C   0  0  0  0  0  0  0  0  0  0  0  0
    4.0800    1.9805   -1.2574 C   0  0  0  0  0  0  0  0  0  0  0  0
    2.6619    2.0736   -1.7368 C   0  0  0  0  0  0  0  0  0  0  0  0
    2.3568    3.1276   -2.7607 C   0  0  0  0  0  0  0  0  0  0  0  0
    1.7131    1.2847   -1.2455 C   0  0  0  0  0  0  0  0  0  0  0  0
    0.2757    1.3458   -1.6509 C   0  0  0  0  0  0  0  0  0  0  0  0
   -0.4647    0.4256   -0.8534 O   0  0  0  0  0  0  0  0  0  0  0  0
   -1.7096    0.1531   -1.2623 C   0  0  0  0  0  0  0  0  0  0  0  0
   -2.2151    0.6462   -2.2435 O   0  0  0  0  0  0  0  0  0  0  0  0
   -2.3265   -0.8464   -0.3877 C   0  0  0  0  0  0  0  0  0  0  0  0
   -1.7019   -1.7044    0.5031 C   0  0  0  0  0  0  0  0  0  0  0  0
   -2.7144   -2.5688    0.9571 C   0  0  0  0  0  0  0  0  0  0  0  0
   -2.6272   -3.6664    1.9074 C   0  0  0  0  0  0  0  0  0  0  0  0
   -3.7715   -4.4004    2.2197 C   0  0  0  0  0  0  0  0  0  0  0  0
   -3.7080   -5.4462    3.1191 C   0  0  0  0  0  0  0  0  0  0  0  0
   -2.5036   -5.7759    3.7205 C   0  0  0  0  0  0  0  0  0  0  0  0
   -1.3627   -5.0520    3.4167 C   0  0  0  0  0  0  0  0  0  0  0  0
   -1.4205   -4.0041    2.5172 C   0  0  0  0  0  0  0  0  0  0  0  0
   -3.8681   -2.2490    0.3728 N   0  0  0  0  0  0  0  0  0  0  0  0
   -3.6377   -1.2221   -0.4250 N   0  0  0  0  0  0  0  0  0  0  0  0
   -4.7070   -0.6506   -1.1364 C   0  0  0  0  0  0  0  0  0  0  0  0
   -4.8746    0.7266   -1.1944 C   0  0  0  0  0  0  0  0  0  0  0  0
   -5.9484    1.2503   -1.8901 C   0  0  0  0  0  0  0  0  0  0  0  0
   -6.8601    0.4104   -2.5080 C   0  0  0  0  0  0  0  0  0  0  0  0
   -6.7042   -0.9633   -2.4229 C   0  0  0  0  0  0  0  0  0  0  0  0
   -5.6300   -1.4979   -1.7371 C   0  0  0  0  0  0  0  0  0  0  0  0
    5.5724    1.9797    3.2031 H   0  0  0  0  0  0  0  0  0  0  0  0
    5.6581    0.5751    2.1486 H   0  0  0  0  0  0  0  0  0  0  0  0
    4.3482    1.7393    1.9501 H   0  0  0  0  0  0  0  0  0  0  0  0
    8.3309    2.9038    0.8553 H   0  0  0  0  0  0  0  0  0  0  0  0
    8.0870    1.3297    1.6238 H   0  0  0  0  0  0  0  0  0  0  0  0
    7.8959    2.8026    2.5660 H   0  0  0  0  0  0  0  0  0  0  0  0
    6.5663    3.5461   -0.4703 H   0  0  0  0  0  0  0  0  0  0  0  0
    3.7223    3.1413    0.5218 H   0  0  0  0  0  0  0  0  0  0  0  0
    4.2872    4.0931   -0.8501 H   0  0  0  0  0  0  0  0  0  0  0  0
    4.2351    1.0438   -0.7206 H   0  0  0  0  0  0  0  0  0  0  0  0
    4.7631    2.0015   -2.1098 H   0  0  0  0  0  0  0  0  0  0  0  0
    3.2676    3.6000   -3.1183 H   0  0  0  0  0  0  0  0  0  0  0  0
    1.7104    3.8969   -2.3380 H   0  0  0  0  0  0  0  0  0  0  0  0
    1.8327    2.6935   -3.6112 H   0  0  0  0  0  0  0  0  0  0  0  0
    1.9396    0.5315   -0.5064 H   0  0  0  0  0  0  0  0  0  0  0  0
   -0.1393    2.3536   -1.5091 H   0  0  0  0  0  0  0  0  0  0  0  0
    0.1407    1.0883   -2.7112 H   0  0  0  0  0  0  0  0  0  0  0  0
   -0.6636   -1.6955    0.7593 H   0  0  0  0  0  0  0  0  0  0  0  0
   -4.7014   -4.1303    1.7444 H   0  0  0  0  0  0  0  0  0  0  0  0
   -4.6000   -6.0084    3.3546 H   0  0  0  0  0  0  0  0  0  0  0  0
   -2.4542   -6.5941    4.4241 H   0  0  0  0  0  0  0  0  0  0  0  0
   -0.4222   -5.3062    3.8841 H   0  0  0  0  0  0  0  0  0  0  0  0
   -0.5249   -3.4468    2.2881 H   0  0  0  0  0  0  0  0  0  0  0  0
   -4.1746    1.3798   -0.6981 H   0  0  0  0  0  0  0  0  0  0  0  0
   -6.0772    2.3208   -1.9435 H   0  0  0  0  0  0  0  0  0  0  0  0
   -7.6956    0.8268   -3.0503 H   0  0  0  0  0  0  0  0  0  0  0  0
   -7.4186   -1.6204   -2.8957 H   0  0  0  0  0  0  0  0  0  0  0  0
   -5.4911   -2.5648   -1.6566 H   0  0  0  0  0  0  0  0  0  0  0  0
  1  2  1  0  0  0  0
  2  3  1  0  0  0  0
  2  4  2  0  0  0  0
  4  5  1  0  0  0  0
  5  6  1  0  0  0  0
  6  7  1  0  0  0  0
  7  8  1  0  0  0  0
  7  9  2  0  0  0  0
  9 10  1  0  0  0  0
 10 11  1  0  0  0  0
 11 12  1  0  0  0  0
 12 13  2  0  0  0  0
 12 14  1  0  0  0  0
 14 15  4  0  0  0  0
 15 16  4  0  0  0  0
 16 17  1  0  0  0  0
 17 18  4  0  0  0  0
 18 19  4  0  0  0  0
 19 20  4  0  0  0  0
 20 21  4  0  0  0  0
 17 22  4  0  0  0  0
 21 22  4  0  0  0  0
 16 23  4  0  0  0  0
 14 24  4  0  0  0  0
 23 24  4  0  0  0  0
 24 25  1  0  0  0  0
 25 26  4  0  0  0  0
 26 27  4  0  0  0  0
 27 28  4  0  0  0  0
 28 29  4  0  0  0  0
 25 30  4  0  0  0  0
 29 30  4  0  0  0  0
  1 31  1  0  0  0  0
  1 32  1  0  0  0  0
  1 33  1  0  0  0  0
  3 34  1  0  0  0  0
  3 35  1  0  0  0  0
  3 36  1  0  0  0  0
  4 37  1  0  0  0  0
  5 38  1  0  0  0  0
  5 39  1  0  0  0  0
  6 40  1  0  0  0  0
  6 41  1  0  0  0  0
  8 42  1  0  0  0  0
  8 43  1  0  0  0  0
  8 44  1  0  0  0  0
  9 45  1  0  0  0  0
 10 46  1  0  0  0  0
 10 47  1  0  0  0  0
 15 48  1  0  0  0  0
 18 49  1  0  0  0  0
 19 50  1  0  0  0  0
 20 51  1  0  0  0  0
 21 52  1  0  0  0  0
 22 53  1  0  0  0  0
 26 54  1  0  0  0  0
 27 55  1  0  0  0  0
 28 56  1  0  0  0  0
 29 57  1  0  0  0  0
 30 58  1  0  0  0  0
M  END
