 xtb: 6.7.1 (edcfbbe)
          07092620263D

 26 25  0     0  0            999 V2000
   -4.4100    0.5336   -0.6861 C   0  0  0  0  0  0  0  0  0  0  0  0
   -3.4746   -0.6103   -0.3211 C   0  0  0  0  0  0  0  0  0  0  0  0
   -2.5662   -0.2315    0.7155 O   0  0  0  0  0  0  0  0  0  0  0  0
   -1.4575    0.4110    0.3494 C   0  0  0  0  0  0  0  0  0  0  0  0
   -1.1765    0.6925   -0.7854 O   0  0  0  0  0  0  0  0  0  0  0  0
   -0.6086    0.7479    1.5601 C   0  0  0  0  0  0  0  0  0  0  0  0
    0.8284    1.0216    1.1355 C   0  0  0  0  0  0  0  0  0  0  0  0
    1.4412   -0.2231    0.5240 C   0  0  0  0  0  0  0  0  0  0  0  0
    1.0013   -1.3367    0.6376 O   0  0  0  0  0  0  0  0  0  0  0  0
    2.5518    0.0740   -0.1480 O   0  0  0  0  0  0  0  0  0  0  0  0
    3.2250   -1.0159   -0.7844 C   0  0  0  0  0  0  0  0  0  0  0  0
    4.4878   -0.4840   -1.4346 C   0  0  0  0  0  0  0  0  0  0  0  0
   -5.1259    0.1959   -1.4299 H   0  0  0  0  0  0  0  0  0  0  0  0
   -3.8393    1.3624   -1.0978 H   0  0  0  0  0  0  0  0  0  0  0  0
   -4.9473    0.8763    0.1950 H   0  0  0  0  0  0  0  0  0  0  0  0
   -4.0287   -1.4592    0.0841 H   0  0  0  0  0  0  0  0  0  0  0  0
   -2.8981   -0.9238   -1.1972 H   0  0  0  0  0  0  0  0  0  0  0  0
   -0.6573   -0.0923    2.2526 H   0  0  0  0  0  0  0  0  0  0  0  0
   -1.0407    1.6245    2.0462 H   0  0  0  0  0  0  0  0  0  0  0  0
    1.4368    1.3191    1.9913 H   0  0  0  0  0  0  0  0  0  0  0  0
    0.8674    1.8169    0.3906 H   0  0  0  0  0  0  0  0  0  0  0  0
    3.4518   -1.7791   -0.0313 H   0  0  0  0  0  0  0  0  0  0  0  0
    2.5501   -1.4588   -1.5249 H   0  0  0  0  0  0  0  0  0  0  0  0
    5.0151   -1.2962   -1.9264 H   0  0  0  0  0  0  0  0  0  0  0  0
    4.2368    0.2752   -2.1700 H   0  0  0  0  0  0  0  0  0  0  0  0
    5.1371   -0.0401   -0.6848 H   0  0  0  0  0  0  0  0  0  0  0  0
  1  2  1  0  0  0  0
  2  3  1  0  0  0  0
  3  4  1  0  0  0  0
  4  5  2  0  0  0  0
  4  6  1  0  0  0  0
  6  7  1  0  0  0  0
  7  8  1  0  0  0  0
  8  9  2  0  0  0  0
  8 10  1  0  0  0  0
 10 11  1  0  0  0  0
 11 12  1  0  0  0  0
  1 13  1  0  0  0  0
  1 14  1  0  0  0  0
  1 15  1  0  0  0  0
  2 16  1  0  0  0  0
  2 17  1  0  0  0  0
  6 18  1  0  0  0  0
  6 19  1  0  0  0  0
  7 20  1  0  0  0  0
  7 21  1  0  0  0  0
 11 22  1  0  0  0  0
 11 23  1  0  0  0  0
 12 24  1  0  0  0  0
 12 25  1  0  0  0  0
 12 26  1  0  0  0  0
M  END
