 xtb: 6.7.1 (edcfbbe)
          07082618053D

 19 18  0     0  0            999 V2000
   -2.4229    1.0315   -0.3544 C   0  0  0  0  0  0  0  0  0  0  0  0
   -1.3654   -0.0691   -0.3422 C   0  0  0  0  0  0  0  0  0  0  0  0
   -1.8221   -1.0933    0.5096 O   0  0  0  0  0  0  0  0  0  0  0  0
   -0.0052    0.4794    0.1137 C   0  0  0  0  0  0  0  0  0  0  0  0
    1.1462   -0.4969   -0.1422 C   0  0  0  0  0  0  0  0  0  0  0  0
    2.4909    0.1277    0.2264 C   0  0  0  0  0  0  0  0  0  0  0  0
    0.9070   -1.6702    0.6218 O   0  0  0  0  0  0  0  0  0  0  0  0
   -2.1694    1.7982   -1.0812 H   0  0  0  0  0  0  0  0  0  0  0  0
   -2.4988    1.4793    0.6328 H   0  0  0  0  0  0  0  0  0  0  0  0
   -3.3857    0.5990   -0.6101 H   0  0  0  0  0  0  0  0  0  0  0  0
   -1.2555   -0.4686   -1.3680 H   0  0  0  0  0  0  0  0  0  0  0  0
   -1.0578   -1.6405    0.7377 H   0  0  0  0  0  0  0  0  0  0  0  0
   -0.0580    0.6893    1.1835 H   0  0  0  0  0  0  0  0  0  0  0  0
    0.2049    1.4079   -0.4176 H   0  0  0  0  0  0  0  0  0  0  0  0
    1.1551   -0.7640   -1.2132 H   0  0  0  0  0  0  0  0  0  0  0  0
    2.5012    0.3876    1.2824 H   0  0  0  0  0  0  0  0  0  0  0  0
    3.3033   -0.5713    0.0315 H   0  0  0  0  0  0  0  0  0  0  0  0
    2.6620    1.0263   -0.3593 H   0  0  0  0  0  0  0  0  0  0  0  0
    1.6704   -2.2523    0.5488 H   0  0  0  0  0  0  0  0  0  0  0  0
  1  2  1  0  0  0  0
  2  3  1  0  0  0  0
  2  4  1  0  0  0  0
  4  5  1  0  0  0  0
  5  6  1  0  0  0  0
  5  7  1  0  0  0  0
  1  8  1  0  0  0  0
  1  9  1  0  0  0  0
  1 10  1  0  0  0  0
  2 11  1  0  0  0  0
  3 12  1  0  0  0  0
  4 13  1  0  0  0  0
  4 14  1  0  0  0  0
  5 15  1  0  0  0  0
  6 16  1  0  0  0  0
  6 17  1  0  0  0  0
  6 18  1  0  0  0  0
  7 19  1  0  0  0  0
M  END
