 xtb: 6.7.1 (edcfbbe)
          07092623163D

 28 27  0     0  0            999 V2000
   -1.1658    2.1841   -2.2305 C   0  0  0  0  0  0  0  0  0  0  0  0
   -0.6952    0.8856   -1.5878 C   0  0  0  0  0  0  0  0  0  0  0  0
   -1.3829    0.6565   -0.2432 C   0  0  0  0  0  0  0  0  0  0  0  0
   -0.9736   -0.6722    0.4191 C   0  0  0  0  0  0  0  0  0  0  0  0
   -1.5635   -1.8800   -0.3085 C   0  0  0  0  0  0  0  0  0  0  0  0
   -1.0404   -3.2104    0.1492 C   0  0  0  0  0  0  0  0  0  0  0  0
   -2.4045   -1.7619   -1.1605 O   0  0  0  0  0  0  0  0  0  0  0  0
    0.5415   -0.7181    0.5479 C   0  0  0  0  0  0  0  0  0  0  0  0
    1.2958   -1.4024   -0.0916 O   0  0  0  0  0  0  0  0  0  0  0  0
    0.9415    0.1476    1.4781 O   0  0  0  0  0  0  0  0  0  0  0  0
    2.3533    0.2771    1.6700 C   0  0  0  0  0  0  0  0  0  0  0  0
    2.5991    1.3834    2.6777 C   0  0  0  0  0  0  0  0  0  0  0  0
   -0.9513    3.0329   -1.5837 H   0  0  0  0  0  0  0  0  0  0  0  0
   -2.2379    2.1508   -2.4092 H   0  0  0  0  0  0  0  0  0  0  0  0
   -0.6640    2.3417   -3.1819 H   0  0  0  0  0  0  0  0  0  0  0  0
    0.3882    0.9205   -1.4494 H   0  0  0  0  0  0  0  0  0  0  0  0
   -0.9193    0.0496   -2.2513 H   0  0  0  0  0  0  0  0  0  0  0  0
   -2.4634    0.6353   -0.3965 H   0  0  0  0  0  0  0  0  0  0  0  0
   -1.1440    1.4768    0.4367 H   0  0  0  0  0  0  0  0  0  0  0  0
   -1.3796   -0.6863    1.4379 H   0  0  0  0  0  0  0  0  0  0  0  0
   -0.9962   -3.2626    1.2341 H   0  0  0  0  0  0  0  0  0  0  0  0
   -1.6601   -4.0120   -0.2436 H   0  0  0  0  0  0  0  0  0  0  0  0
   -0.0265   -3.3192   -0.2344 H   0  0  0  0  0  0  0  0  0  0  0  0
    2.7493   -0.6817    2.0229 H   0  0  0  0  0  0  0  0  0  0  0  0
    2.8210    0.5019    0.7050 H   0  0  0  0  0  0  0  0  0  0  0  0
    2.1239    1.1408    3.6242 H   0  0  0  0  0  0  0  0  0  0  0  0
    3.6669    1.5018    2.8357 H   0  0  0  0  0  0  0  0  0  0  0  0
    2.1877    2.3204    2.3126 H   0  0  0  0  0  0  0  0  0  0  0  0
  1  2  1  0  0  0  0
  2  3  1  0  0  0  0
  3  4  1  0  0  0  0
  4  5  1  0  0  0  0
  5  6  1  0  0  0  0
  5  7  2  0  0  0  0
  4  8  1  0  0  0  0
  8  9  2  0  0  0  0
  8 10  1  0  0  0  0
 10 11  1  0  0  0  0
 11 12  1  0  0  0  0
  1 13  1  0  0  0  0
  1 14  1  0  0  0  0
  1 15  1  0  0  0  0
  2 16  1  0  0  0  0
  2 17  1  0  0  0  0
  3 18  1  0  0  0  0
  3 19  1  0  0  0  0
  4 20  1  0  0  0  0
  6 21  1  0  0  0  0
  6 22  1  0  0  0  0
  6 23  1  0  0  0  0
 11 24  1  0  0  0  0
 11 25  1  0  0  0  0
 12 26  1  0  0  0  0
 12 27  1  0  0  0  0
 12 28  1  0  0  0  0
M  END
