 xtb: 6.7.1 (edcfbbe)
          07072620253D

 22 22  0     0  0            999 V2000
   -2.6878   -0.1687    0.2018 C   0  0  0  0  0  0  0  0  0  0  0  0
   -1.2726    0.0210   -0.3375 C   0  0  0  0  0  0  0  0  0  0  0  0
   -0.4128   -1.2104   -0.0514 C   0  0  0  0  0  0  0  0  0  0  0  0
    1.0039   -1.0388   -0.6043 C   0  0  0  0  0  0  0  0  0  0  0  0
    1.6096    0.2258   -0.0751 C   0  0  0  0  0  0  0  0  0  0  0  0
    2.7118    0.3472    0.5314 N   0  0  0  0  0  0  0  0  0  0  0  0
    3.4690   -0.8189    0.7175 O   0  0  0  0  0  0  0  0  0  0  0  0
    0.7943    1.4645   -0.2736 C   0  0  0  0  0  0  0  0  0  0  0  0
   -0.6152    1.2543    0.2836 C   0  0  0  0  0  0  0  0  0  0  0  0
   -3.3008    0.7031   -0.0160 H   0  0  0  0  0  0  0  0  0  0  0  0
   -2.6671   -0.3122    1.2802 H   0  0  0  0  0  0  0  0  0  0  0  0
   -3.1564   -1.0397   -0.2507 H   0  0  0  0  0  0  0  0  0  0  0  0
   -1.3288    0.1644   -1.4233 H   0  0  0  0  0  0  0  0  0  0  0  0
   -0.3598   -1.3675    1.0287 H   0  0  0  0  0  0  0  0  0  0  0  0
   -0.8700   -2.0973   -0.4955 H   0  0  0  0  0  0  0  0  0  0  0  0
    0.9647   -0.9750   -1.6957 H   0  0  0  0  0  0  0  0  0  0  0  0
    1.6296   -1.8895   -0.3309 H   0  0  0  0  0  0  0  0  0  0  0  0
    4.2508   -0.5070    1.1923 H   0  0  0  0  0  0  0  0  0  0  0  0
    0.7308    1.6712   -1.3457 H   0  0  0  0  0  0  0  0  0  0  0  0
    1.2844    2.3078    0.2133 H   0  0  0  0  0  0  0  0  0  0  0  0
   -0.5573    1.1244    1.3667 H   0  0  0  0  0  0  0  0  0  0  0  0
   -1.2204    2.1412    0.0843 H   0  0  0  0  0  0  0  0  0  0  0  0
  1  2  1  0  0  0  0
  2  3  1  0  0  0  0
  3  4  1  0  0  0  0
  4  5  1  0  0  0  0
  5  6  2  0  0  0  0
  6  7  1  0  0  0  0
  5  8  1  0  0  0  0
  2  9  1  0  0  0  0
  8  9  1  0  0  0  0
  1 10  1  0  0  0  0
  1 11  1  0  0  0  0
  1 12  1  0  0  0  0
  2 13  1  0  0  0  0
  3 14  1  0  0  0  0
  3 15  1  0  0  0  0
  4 16  1  0  0  0  0
  4 17  1  0  0  0  0
  7 18  1  0  0  0  0
  8 19  1  0  0  0  0
  8 20  1  0  0  0  0
  9 21  1  0  0  0  0
  9 22  1  0  0  0  0
M  END
