 xtb: 6.7.1 (edcfbbe)
          07092606113D

 27 26  0     0  0            999 V2000
    4.9477    1.1776   -0.8871 C   0  0  0  0  0  0  0  0  0  0  0  0
    4.0500    0.0241   -0.6307 C   0  0  0  0  0  0  0  0  0  0  0  0
    2.7977    0.1100   -0.1908 C   0  0  0  0  0  0  0  0  0  0  0  0
    1.9827   -1.0946    0.0326 C   0  0  0  0  0  0  0  0  0  0  0  0
    2.3434   -2.2324   -0.1547 O   0  0  0  0  0  0  0  0  0  0  0  0
    0.7603   -0.7718    0.4795 O   0  0  0  0  0  0  0  0  0  0  0  0
   -0.1274   -1.8590    0.7299 C   0  0  0  0  0  0  0  0  0  0  0  0
   -1.4740   -1.3027    1.1683 C   0  0  0  0  0  0  0  0  0  0  0  0
   -2.1644   -0.5270    0.0486 C   0  0  0  0  0  0  0  0  0  0  0  0
   -3.5076    0.0451    0.4942 C   0  0  0  0  0  0  0  0  0  0  0  0
   -4.1906    0.8208   -0.6255 C   0  0  0  0  0  0  0  0  0  0  0  0
    5.2724    1.1703   -1.9272 H   0  0  0  0  0  0  0  0  0  0  0  0
    4.4514    2.1210   -0.6746 H   0  0  0  0  0  0  0  0  0  0  0  0
    5.8412    1.0963   -0.2687 H   0  0  0  0  0  0  0  0  0  0  0  0
    4.4580   -0.9609   -0.8203 H   0  0  0  0  0  0  0  0  0  0  0  0
    2.3164    1.0522    0.0234 H   0  0  0  0  0  0  0  0  0  0  0  0
    0.3094   -2.4983    1.5062 H   0  0  0  0  0  0  0  0  0  0  0  0
   -0.2223   -2.4564   -0.1844 H   0  0  0  0  0  0  0  0  0  0  0  0
   -1.3184   -0.6454    2.0255 H   0  0  0  0  0  0  0  0  0  0  0  0
   -2.1025   -2.1365    1.4863 H   0  0  0  0  0  0  0  0  0  0  0  0
   -1.5108    0.2858   -0.2729 H   0  0  0  0  0  0  0  0  0  0  0  0
   -2.3195   -1.1892   -0.8065 H   0  0  0  0  0  0  0  0  0  0  0  0
   -4.1573   -0.7709    0.8193 H   0  0  0  0  0  0  0  0  0  0  0  0
   -3.3527    0.7053    1.3505 H   0  0  0  0  0  0  0  0  0  0  0  0
   -5.1441    1.2207   -0.2886 H   0  0  0  0  0  0  0  0  0  0  0  0
   -4.3728    0.1746   -1.4815 H   0  0  0  0  0  0  0  0  0  0  0  0
   -3.5660    1.6500   -0.9506 H   0  0  0  0  0  0  0  0  0  0  0  0
  1  2  1  0  0  0  0
  2  3  2  0  0  0  0
  3  4  1  0  0  0  0
  4  5  2  0  0  0  0
  4  6  1  0  0  0  0
  6  7  1  0  0  0  0
  7  8  1  0  0  0  0
  8  9  1  0  0  0  0
  9 10  1  0  0  0  0
 10 11  1  0  0  0  0
  1 12  1  0  0  0  0
  1 13  1  0  0  0  0
  1 14  1  0  0  0  0
  2 15  1  0  0  0  0
  3 16  1  0  0  0  0
  7 17  1  0  0  0  0
  7 18  1  0  0  0  0
  8 19  1  0  0  0  0
  8 20  1  0  0  0  0
  9 21  1  0  0  0  0
  9 22  1  0  0  0  0
 10 23  1  0  0  0  0
 10 24  1  0  0  0  0
 11 25  1  0  0  0  0
 11 26  1  0  0  0  0
 11 27  1  0  0  0  0
M  END
