 xtb: 6.7.1 (edcfbbe)
          07082621233D

 21 20  0     0  0            999 V2000
   -1.5146    0.7607    1.3464 C   0  0  0  0  0  0  0  0  0  0  0  0
   -1.5222    0.4757   -0.1509 C   0  0  0  0  0  0  0  0  0  0  0  0
   -2.6971   -0.3946   -0.5693 C   0  0  0  0  0  0  0  0  0  0  0  0
   -0.3216   -0.2395   -0.5113 O   0  0  0  0  0  0  0  0  0  0  0  0
    0.7681    0.4683   -0.7462 C   0  0  0  0  0  0  0  0  0  0  0  0
    0.8500    1.6724   -0.7057 O   0  0  0  0  0  0  0  0  0  0  0  0
    1.9763   -0.4070   -1.0607 C   0  0  0  0  0  0  0  0  0  0  0  0
    2.4095   -1.1166    0.2310 C   0  0  0  0  0  0  0  0  0  0  0  0
    3.0003    0.3889   -1.5883 O   0  0  0  0  0  0  0  0  0  0  0  0
   -2.4258    1.2816    1.6257 H   0  0  0  0  0  0  0  0  0  0  0  0
   -0.6626    1.3853    1.6037 H   0  0  0  0  0  0  0  0  0  0  0  0
   -1.4519   -0.1714    1.9034 H   0  0  0  0  0  0  0  0  0  0  0  0
   -1.5241    1.4230   -0.7049 H   0  0  0  0  0  0  0  0  0  0  0  0
   -2.6689   -1.3379   -0.0302 H   0  0  0  0  0  0  0  0  0  0  0  0
   -2.6523   -0.6018   -1.6351 H   0  0  0  0  0  0  0  0  0  0  0  0
   -3.6297    0.1154   -0.3470 H   0  0  0  0  0  0  0  0  0  0  0  0
    1.6987   -1.1541   -1.8139 H   0  0  0  0  0  0  0  0  0  0  0  0
    1.6112   -1.7618    0.5858 H   0  0  0  0  0  0  0  0  0  0  0  0
    2.6502   -0.3819    0.9966 H   0  0  0  0  0  0  0  0  0  0  0  0
    3.2959   -1.7114    0.0295 H   0  0  0  0  0  0  0  0  0  0  0  0
    2.8107    1.3067   -1.3341 H   0  0  0  0  0  0  0  0  0  0  0  0
  1  2  1  0  0  0  0
  2  3  1  0  0  0  0
  2  4  1  0  0  0  0
  4  5  1  0  0  0  0
  5  6  2  0  0  0  0
  5  7  1  0  0  0  0
  7  8  1  0  0  0  0
  7  9  1  0  0  0  0
  1 10  1  0  0  0  0
  1 11  1  0  0  0  0
  1 12  1  0  0  0  0
  2 13  1  0  0  0  0
  3 14  1  0  0  0  0
  3 15  1  0  0  0  0
  3 16  1  0  0  0  0
  7 17  1  0  0  0  0
  8 18  1  0  0  0  0
  8 19  1  0  0  0  0
  8 20  1  0  0  0  0
  9 21  1  0  0  0  0
M  END
