 xtb: 6.7.1 (edcfbbe)
          07072622523D

 31 30  0     0  0            999 V2000
   -2.6729    1.9535    0.4959 C   0  0  0  0  0  0  0  0  0  0  0  0
   -1.5595    1.0154    0.9459 C   0  0  0  0  0  0  0  0  0  0  0  0
   -1.1511    0.0122   -0.1407 C   0  0  0  0  0  0  0  0  0  0  0  0
   -2.1860   -1.1160   -0.2564 C   0  0  0  0  0  0  0  0  0  0  0  0
   -2.1700   -1.8099   -1.6134 C   0  0  0  0  0  0  0  0  0  0  0  0
    0.2370   -0.5906    0.1533 C   0  0  0  0  0  0  0  0  0  0  0  0
    0.2396   -1.0793    1.4753 O   0  0  0  0  0  0  0  0  0  0  0  0
    1.3826    0.4091   -0.0823 C   0  0  0  0  0  0  0  0  0  0  0  0
    2.7605   -0.2646   -0.0141 C   0  0  0  0  0  0  0  0  0  0  0  0
    3.8702    0.7149   -0.3922 C   0  0  0  0  0  0  0  0  0  0  0  0
    3.0012   -0.8299    1.2640 O   0  0  0  0  0  0  0  0  0  0  0  0
   -3.5725    1.4047    0.2294 H   0  0  0  0  0  0  0  0  0  0  0  0
   -2.3573    2.5304   -0.3715 H   0  0  0  0  0  0  0  0  0  0  0  0
   -2.9255    2.6473    1.2947 H   0  0  0  0  0  0  0  0  0  0  0  0
   -0.6963    1.6205    1.2248 H   0  0  0  0  0  0  0  0  0  0  0  0
   -1.8685    0.4603    1.8319 H   0  0  0  0  0  0  0  0  0  0  0  0
   -1.0894    0.5376   -1.1004 H   0  0  0  0  0  0  0  0  0  0  0  0
   -1.9892   -1.8395    0.5360 H   0  0  0  0  0  0  0  0  0  0  0  0
   -3.1836   -0.7073   -0.0914 H   0  0  0  0  0  0  0  0  0  0  0  0
   -1.2016   -2.2605   -1.8172 H   0  0  0  0  0  0  0  0  0  0  0  0
   -2.3890   -1.0982   -2.4074 H   0  0  0  0  0  0  0  0  0  0  0  0
   -2.9206   -2.5965   -1.6426 H   0  0  0  0  0  0  0  0  0  0  0  0
    0.3969   -1.4313   -0.5448 H   0  0  0  0  0  0  0  0  0  0  0  0
    1.1420   -1.3786    1.6645 H   0  0  0  0  0  0  0  0  0  0  0  0
    1.2630    0.8629   -1.0663 H   0  0  0  0  0  0  0  0  0  0  0  0
    1.3386    1.1991    0.6708 H   0  0  0  0  0  0  0  0  0  0  0  0
    2.7812   -1.1220   -0.6967 H   0  0  0  0  0  0  0  0  0  0  0  0
    3.7481    1.0473   -1.4189 H   0  0  0  0  0  0  0  0  0  0  0  0
    4.8397    0.2324   -0.2925 H   0  0  0  0  0  0  0  0  0  0  0  0
    3.8449    1.5861    0.2614 H   0  0  0  0  0  0  0  0  0  0  0  0
    3.0875   -0.1095    1.9006 H   0  0  0  0  0  0  0  0  0  0  0  0
  1  2  1  0  0  0  0
  2  3  1  0  0  0  0
  3  4  1  0  0  0  0
  4  5  1  0  0  0  0
  3  6  1  0  0  0  0
  6  7  1  0  0  0  0
  6  8  1  0  0  0  0
  8  9  1  0  0  0  0
  9 10  1  0  0  0  0
  9 11  1  0  0  0  0
  1 12  1  0  0  0  0
  1 13  1  0  0  0  0
  1 14  1  0  0  0  0
  2 15  1  0  0  0  0
  2 16  1  0  0  0  0
  3 17  1  0  0  0  0
  4 18  1  0  0  0  0
  4 19  1  0  0  0  0
  5 20  1  0  0  0  0
  5 21  1  0  0  0  0
  5 22  1  0  0  0  0
  6 23  1  0  0  0  0
  7 24  1  0  0  0  0
  8 25  1  0  0  0  0
  8 26  1  0  0  0  0
  9 27  1  0  0  0  0
 10 28  1  0  0  0  0
 10 29  1  0  0  0  0
 10 30  1  0  0  0  0
 11 31  1  0  0  0  0
M  END
