 xtb: 6.7.1 (edcfbbe)
          07082607533D

 28 27  0     0  0            999 V2000
    3.7351    0.9725    0.0100 C   0  0  0  0  0  0  0  0  0  0  0  0
    2.5197    0.1546   -0.4178 C   0  0  0  0  0  0  0  0  0  0  0  0
    2.6337   -1.2814    0.0867 C   0  0  0  0  0  0  0  0  0  0  0  0
    1.2329    0.8004    0.1039 C   0  0  0  0  0  0  0  0  0  0  0  0
   -0.0217    0.2452   -0.5417 C   0  0  0  0  0  0  0  0  0  0  0  0
   -0.0023   -0.4308   -1.5383 O   0  0  0  0  0  0  0  0  0  0  0  0
   -1.3060    0.6662    0.1455 C   0  0  0  0  0  0  0  0  0  0  0  0
   -2.5340   -0.1125   -0.3350 C   0  0  0  0  0  0  0  0  0  0  0  0
   -2.4794   -1.5517    0.1705 C   0  0  0  0  0  0  0  0  0  0  0  0
   -3.8142    0.5733    0.1337 C   0  0  0  0  0  0  0  0  0  0  0  0
    4.6490    0.5157   -0.3621 H   0  0  0  0  0  0  0  0  0  0  0  0
    3.6780    1.9869   -0.3794 H   0  0  0  0  0  0  0  0  0  0  0  0
    3.7965    1.0232    1.0956 H   0  0  0  0  0  0  0  0  0  0  0  0
    2.4683    0.1344   -1.5109 H   0  0  0  0  0  0  0  0  0  0  0  0
    1.7809   -1.8673   -0.2456 H   0  0  0  0  0  0  0  0  0  0  0  0
    2.6709   -1.3029    1.1748 H   0  0  0  0  0  0  0  0  0  0  0  0
    3.5381   -1.7477   -0.2965 H   0  0  0  0  0  0  0  0  0  0  0  0
    1.1669    0.6867    1.1878 H   0  0  0  0  0  0  0  0  0  0  0  0
    1.2463    1.8736   -0.1091 H   0  0  0  0  0  0  0  0  0  0  0  0
   -1.4394    1.7317   -0.0651 H   0  0  0  0  0  0  0  0  0  0  0  0
   -1.1931    0.5619    1.2264 H   0  0  0  0  0  0  0  0  0  0  0  0
   -2.5165   -0.1292   -1.4292 H   0  0  0  0  0  0  0  0  0  0  0  0
   -1.5809   -2.0450   -0.1905 H   0  0  0  0  0  0  0  0  0  0  0  0
   -2.4785   -1.5752    1.2592 H   0  0  0  0  0  0  0  0  0  0  0  0
   -3.3417   -2.1114   -0.1837 H   0  0  0  0  0  0  0  0  0  0  0  0
   -4.6865    0.0222   -0.2091 H   0  0  0  0  0  0  0  0  0  0  0  0
   -3.8770    1.5875   -0.2555 H   0  0  0  0  0  0  0  0  0  0  0  0
   -3.8451    0.6192    1.2209 H   0  0  0  0  0  0  0  0  0  0  0  0
  1  2  1  0  0  0  0
  2  3  1  0  0  0  0
  2  4  1  0  0  0  0
  4  5  1  0  0  0  0
  5  6  2  0  0  0  0
  5  7  1  0  0  0  0
  7  8  1  0  0  0  0
  8  9  1  0  0  0  0
  8 10  1  0  0  0  0
  1 11  1  0  0  0  0
  1 12  1  0  0  0  0
  1 13  1  0  0  0  0
  2 14  1  0  0  0  0
  3 15  1  0  0  0  0
  3 16  1  0  0  0  0
  3 17  1  0  0  0  0
  4 18  1  0  0  0  0
  4 19  1  0  0  0  0
  7 20  1  0  0  0  0
  7 21  1  0  0  0  0
  8 22  1  0  0  0  0
  9 23  1  0  0  0  0
  9 24  1  0  0  0  0
  9 25  1  0  0  0  0
 10 26  1  0  0  0  0
 10 27  1  0  0  0  0
 10 28  1  0  0  0  0
M  END
