 xtb: 6.7.1 (edcfbbe)
          07082603213D

 28 28  0     0  0            999 V2000
   -1.1235    2.1125    0.2627 C   0  0  0  0  0  0  0  0  0  0  0  0
   -1.1726    0.6535    0.7160 C   0  0  0  0  0  0  0  0  0  0  0  0
   -1.1480   -0.2652   -0.4013 N   0  0  0  0  0  0  0  0  0  0  0  0
   -2.4203   -0.6331   -0.9950 C   0  0  0  0  0  0  0  0  0  0  0  0
   -3.0608   -1.8132   -0.2699 C   0  0  0  0  0  0  0  0  0  0  0  0
   -0.0100   -0.7286   -0.9697 C   0  0  0  0  0  0  0  0  0  0  0  0
   -0.0107   -1.4433   -1.9553 O   0  0  0  0  0  0  0  0  0  0  0  0
    1.2733   -0.3180   -0.3099 C   0  0  0  0  0  0  0  0  0  0  0  0
    1.7422   -1.0065    0.8028 C   0  0  0  0  0  0  0  0  0  0  0  0
    2.9575   -0.6646    1.3691 C   0  0  0  0  0  0  0  0  0  0  0  0
    3.7122    0.3625    0.8273 C   0  0  0  0  0  0  0  0  0  0  0  0
    3.2555    1.0399   -0.2905 C   0  0  0  0  0  0  0  0  0  0  0  0
    2.0422    0.6978   -0.8622 C   0  0  0  0  0  0  0  0  0  0  0  0
   -1.2016    2.7713    1.1235 H   0  0  0  0  0  0  0  0  0  0  0  0
   -1.9424    2.3317   -0.4183 H   0  0  0  0  0  0  0  0  0  0  0  0
   -0.1851    2.3153   -0.2469 H   0  0  0  0  0  0  0  0  0  0  0  0
   -2.0913    0.4733    1.2803 H   0  0  0  0  0  0  0  0  0  0  0  0
   -0.3242    0.4501    1.3729 H   0  0  0  0  0  0  0  0  0  0  0  0
   -2.2234   -0.9092   -2.0336 H   0  0  0  0  0  0  0  0  0  0  0  0
   -3.0847    0.2347   -0.9749 H   0  0  0  0  0  0  0  0  0  0  0  0
   -4.0087   -2.0651   -0.7375 H   0  0  0  0  0  0  0  0  0  0  0  0
   -3.2417   -1.5779    0.7771 H   0  0  0  0  0  0  0  0  0  0  0  0
   -2.4043   -2.6777   -0.3247 H   0  0  0  0  0  0  0  0  0  0  0  0
    1.1549   -1.8130    1.2188 H   0  0  0  0  0  0  0  0  0  0  0  0
    3.3176   -1.2029    2.2337 H   0  0  0  0  0  0  0  0  0  0  0  0
    4.6598    0.6292    1.2717 H   0  0  0  0  0  0  0  0  0  0  0  0
    3.8475    1.8341   -0.7213 H   0  0  0  0  0  0  0  0  0  0  0  0
    1.6906    1.2122   -1.7450 H   0  0  0  0  0  0  0  0  0  0  0  0
  1  2  1  0  0  0  0
  2  3  1  0  0  0  0
  3  4  1  0  0  0  0
  4  5  1  0  0  0  0
  3  6  4  0  0  0  0
  6  7  2  0  0  0  0
  6  8  1  0  0  0  0
  8  9  4  0  0  0  0
  9 10  4  0  0  0  0
 10 11  4  0  0  0  0
 11 12  4  0  0  0  0
  8 13  4  0  0  0  0
 12 13  4  0  0  0  0
  1 14  1  0  0  0  0
  1 15  1  0  0  0  0
  1 16  1  0  0  0  0
  2 17  1  0  0  0  0
  2 18  1  0  0  0  0
  4 19  1  0  0  0  0
  4 20  1  0  0  0  0
  5 21  1  0  0  0  0
  5 22  1  0  0  0  0
  5 23  1  0  0  0  0
  9 24  1  0  0  0  0
 10 25  1  0  0  0  0
 11 26  1  0  0  0  0
 12 27  1  0  0  0  0
 13 28  1  0  0  0  0
M  END
