 xtb: 6.7.1 (edcfbbe)
          07082618313D

 16 16  0     0  0            999 V2000
   -2.2617   -0.6831    0.1889 C   0  0  0  0  0  0  0  0  0  0  0  0
   -1.1020    0.0798   -0.4389 C   0  0  0  0  0  0  0  0  0  0  0  0
    0.1913   -0.1408    0.3422 C   0  0  0  0  0  0  0  0  0  0  0  0
    1.3584    0.6251   -0.2870 C   0  0  0  0  0  0  0  0  0  0  0  0
    2.5653    0.3670    0.5141 N   0  0  0  0  0  0  0  0  0  0  0  0
    2.7822    1.1091    1.4408 O   0  0  0  0  0  0  0  0  0  0  0  0
    3.2348   -0.5905    0.2116 O   0  0  0  0  0  0  0  0  0  0  0  0
   -2.0547   -1.7505    0.2016 H   0  0  0  0  0  0  0  0  0  0  0  0
   -3.1748   -0.5171   -0.3767 H   0  0  0  0  0  0  0  0  0  0  0  0
   -2.4267   -0.3535    1.2119 H   0  0  0  0  0  0  0  0  0  0  0  0
   -1.3361    1.1461   -0.4590 H   0  0  0  0  0  0  0  0  0  0  0  0
   -0.9639   -0.2517   -1.4700 H   0  0  0  0  0  0  0  0  0  0  0  0
    0.0569    0.1956    1.3728 H   0  0  0  0  0  0  0  0  0  0  0  0
    0.4303   -1.2065    0.3587 H   0  0  0  0  0  0  0  0  0  0  0  0
    1.5400    0.2729   -1.3037 H   0  0  0  0  0  0  0  0  0  0  0  0
    1.1605    1.6980   -0.2729 H   0  0  0  0  0  0  0  0  0  0  0  0
  1  2  1  0  0  0  0
  2  3  1  0  0  0  0
  3  4  1  0  0  0  0
  4  5  1  0  0  0  0
  5  6  4  0  0  0  0
  5  7  4  0  0  0  0
  6  7  1  0  0  0  0
  1  8  1  0  0  0  0
  1  9  1  0  0  0  0
  1 10  1  0  0  0  0
  2 11  1  0  0  0  0
  2 12  1  0  0  0  0
  3 13  1  0  0  0  0
  3 14  1  0  0  0  0
  4 15  1  0  0  0  0
  4 16  1  0  0  0  0
M  END
