 xtb: 6.7.1 (edcfbbe)
          07072609273D

 26 26  0     0  0            999 V2000
   -4.2116    1.0743    0.2394 C   0  0  0  0  0  0  0  0  0  0  0  0
   -3.3210    0.1011    0.1456 C   0  0  0  0  0  0  0  0  0  0  0  0
   -3.4268   -1.1941    0.8871 C   0  0  0  0  0  0  0  0  0  0  0  0
   -2.1069    0.2282   -0.7319 C   0  0  0  0  0  0  0  0  0  0  0  0
   -0.9399    0.1362    0.0914 O   0  0  0  0  0  0  0  0  0  0  0  0
    0.2304    0.3113   -0.5262 C   0  0  0  0  0  0  0  0  0  0  0  0
    0.3246    0.5106   -1.7118 O   0  0  0  0  0  0  0  0  0  0  0  0
    1.3712    0.2353    0.4326 C   0  0  0  0  0  0  0  0  0  0  0  0
    1.1675    0.3892    1.7472 C   0  0  0  0  0  0  0  0  0  0  0  0
    2.6913    0.0210   -0.1261 C   0  0  0  0  0  0  0  0  0  0  0  0
    3.1254   -0.1661   -1.4155 C   0  0  0  0  0  0  0  0  0  0  0  0
    4.5250   -0.3317   -1.3424 C   0  0  0  0  0  0  0  0  0  0  0  0
    4.8449   -0.2376   -0.0219 C   0  0  0  0  0  0  0  0  0  0  0  0
    3.7505   -0.0263    0.7207 O   0  0  0  0  0  0  0  0  0  0  0  0
   -5.0856    0.9805    0.8609 H   0  0  0  0  0  0  0  0  0  0  0  0
   -4.1090    1.9975   -0.3047 H   0  0  0  0  0  0  0  0  0  0  0  0
   -3.5434   -2.0187    0.1842 H   0  0  0  0  0  0  0  0  0  0  0  0
   -2.5138   -1.3681    1.4541 H   0  0  0  0  0  0  0  0  0  0  0  0
   -4.2749   -1.1875    1.5658 H   0  0  0  0  0  0  0  0  0  0  0  0
   -2.0921    1.1828   -1.2681 H   0  0  0  0  0  0  0  0  0  0  0  0
   -2.0734   -0.5803   -1.4741 H   0  0  0  0  0  0  0  0  0  0  0  0
    1.9893    0.3514    2.4411 H   0  0  0  0  0  0  0  0  0  0  0  0
    0.1834    0.5614    2.1431 H   0  0  0  0  0  0  0  0  0  0  0  0
    2.5149   -0.1717   -2.2935 H   0  0  0  0  0  0  0  0  0  0  0  0
    5.1977   -0.4972   -2.1586 H   0  0  0  0  0  0  0  0  0  0  0  0
    5.7823   -0.3015    0.4950 H   0  0  0  0  0  0  0  0  0  0  0  0
  1  2  2  0  0  0  0
  2  3  1  0  0  0  0
  2  4  1  0  0  0  0
  4  5  1  0  0  0  0
  5  6  1  0  0  0  0
  6  7  2  0  0  0  0
  6  8  1  0  0  0  0
  8  9  2  0  0  0  0
  8 10  1  0  0  0  0
 10 11  2  0  0  0  0
 11 12  4  0  0  0  0
 12 13  2  0  0  0  0
 10 14  1  0  0  0  0
 13 14  1  0  0  0  0
  1 15  1  0  0  0  0
  1 16  1  0  0  0  0
  3 17  1  0  0  0  0
  3 18  1  0  0  0  0
  3 19  1  0  0  0  0
  4 20  1  0  0  0  0
  4 21  1  0  0  0  0
  9 22  1  0  0  0  0
  9 23  1  0  0  0  0
 11 24  1  0  0  0  0
 12 25  1  0  0  0  0
 13 26  1  0  0  0  0
M  END
