 xtb: 6.7.1 (edcfbbe)
          07092622353D

 32 31  0     0  0            999 V2000
   -4.4448   -0.5840   -0.6263 C   0  0  0  0  0  0  0  0  0  0  0  0
   -3.2420    0.2604   -0.2156 C   0  0  0  0  0  0  0  0  0  0  0  0
   -3.3885    0.7396    1.2262 C   0  0  0  0  0  0  0  0  0  0  0  0
   -1.9471   -0.5423   -0.3771 C   0  0  0  0  0  0  0  0  0  0  0  0
   -0.7031    0.3141   -0.3117 C   0  0  0  0  0  0  0  0  0  0  0  0
   -0.7221    1.5126   -0.4648 O   0  0  0  0  0  0  0  0  0  0  0  0
    0.5853   -0.4519   -0.0980 C   0  0  0  0  0  0  0  0  0  0  0  0
    1.7552    0.4771    0.2785 C   0  0  0  0  0  0  0  0  0  0  0  0
    2.0533    1.3606   -0.7747 O   0  0  0  0  0  0  0  0  0  0  0  0
    3.0274   -0.3088    0.6458 C   0  0  0  0  0  0  0  0  0  0  0  0
    4.0820    0.6598    1.1769 C   0  0  0  0  0  0  0  0  0  0  0  0
    3.5756   -1.0765   -0.5545 C   0  0  0  0  0  0  0  0  0  0  0  0
   -4.3645   -0.8959   -1.6654 H   0  0  0  0  0  0  0  0  0  0  0  0
   -4.5155   -1.4739   -0.0036 H   0  0  0  0  0  0  0  0  0  0  0  0
   -5.3633   -0.0138   -0.5117 H   0  0  0  0  0  0  0  0  0  0  0  0
   -3.1799    1.1366   -0.8686 H   0  0  0  0  0  0  0  0  0  0  0  0
   -3.4427   -0.1083    1.9072 H   0  0  0  0  0  0  0  0  0  0  0  0
   -4.2951    1.3287    1.3397 H   0  0  0  0  0  0  0  0  0  0  0  0
   -2.5416    1.3599    1.5083 H   0  0  0  0  0  0  0  0  0  0  0  0
   -1.9348   -1.0259   -1.3590 H   0  0  0  0  0  0  0  0  0  0  0  0
   -1.8933   -1.3326    0.3738 H   0  0  0  0  0  0  0  0  0  0  0  0
    0.8189   -0.9544   -1.0400 H   0  0  0  0  0  0  0  0  0  0  0  0
    0.4464   -1.2145    0.6686 H   0  0  0  0  0  0  0  0  0  0  0  0
    1.4455    1.0548    1.1674 H   0  0  0  0  0  0  0  0  0  0  0  0
    1.2541    1.8825   -0.9345 H   0  0  0  0  0  0  0  0  0  0  0  0
    2.7632   -1.0163    1.4405 H   0  0  0  0  0  0  0  0  0  0  0  0
    3.7152    1.1827    2.0575 H   0  0  0  0  0  0  0  0  0  0  0  0
    4.3172    1.3934    0.4111 H   0  0  0  0  0  0  0  0  0  0  0  0
    4.9899    0.1249    1.4448 H   0  0  0  0  0  0  0  0  0  0  0  0
    4.5424   -1.5097   -0.3101 H   0  0  0  0  0  0  0  0  0  0  0  0
    2.9083   -1.8832   -0.8485 H   0  0  0  0  0  0  0  0  0  0  0  0
    3.6985   -0.3956   -1.3920 H   0  0  0  0  0  0  0  0  0  0  0  0
  1  2  1  0  0  0  0
  2  3  1  0  0  0  0
  2  4  1  0  0  0  0
  4  5  1  0  0  0  0
  5  6  2  0  0  0  0
  5  7  1  0  0  0  0
  7  8  1  0  0  0  0
  8  9  1  0  0  0  0
  8 10  1  0  0  0  0
 10 11  1  0  0  0  0
 10 12  1  0  0  0  0
  1 13  1  0  0  0  0
  1 14  1  0  0  0  0
  1 15  1  0  0  0  0
  2 16  1  0  0  0  0
  3 17  1  0  0  0  0
  3 18  1  0  0  0  0
  3 19  1  0  0  0  0
  4 20  1  0  0  0  0
  4 21  1  0  0  0  0
  7 22  1  0  0  0  0
  7 23  1  0  0  0  0
  8 24  1  0  0  0  0
  9 25  1  0  0  0  0
 10 26  1  0  0  0  0
 11 27  1  0  0  0  0
 11 28  1  0  0  0  0
 11 29  1  0  0  0  0
 12 30  1  0  0  0  0
 12 31  1  0  0  0  0
 12 32  1  0  0  0  0
M  END
