 xtb: 6.7.1 (edcfbbe)
          07092621313D

 24 23  0     0  0            999 V2000
    6.0279   -0.0346   -0.7665 C   0  0  0  0  0  0  0  0  0  0  0  0
    5.0392    0.4417   -1.2429 C   0  0  0  0  0  0  0  0  0  0  0  0
    3.8028    0.9922   -1.7653 C   0  0  0  0  0  0  0  0  0  0  0  0
    2.7561    0.9077   -0.7948 O   0  0  0  0  0  0  0  0  0  0  0  0
    1.8155   -0.0290   -0.9887 C   0  0  0  0  0  0  0  0  0  0  0  0
    1.7671   -0.7769   -1.9319 O   0  0  0  0  0  0  0  0  0  0  0  0
    0.8545   -0.0010    0.0785 C   0  0  0  0  0  0  0  0  0  0  0  0
    0.0164   -0.0235    0.9419 C   0  0  0  0  0  0  0  0  0  0  0  0
   -0.9941   -0.0541    1.9716 C   0  0  0  0  0  0  0  0  0  0  0  0
   -2.3190   -0.6185    1.4446 C   0  0  0  0  0  0  0  0  0  0  0  0
   -2.9287    0.2739    0.3665 C   0  0  0  0  0  0  0  0  0  0  0  0
   -4.2360   -0.3001   -0.1646 C   0  0  0  0  0  0  0  0  0  0  0  0
    6.9114   -0.4421   -0.3742 H   0  0  0  0  0  0  0  0  0  0  0  0
    3.9316    2.0551   -1.9970 H   0  0  0  0  0  0  0  0  0  0  0  0
    3.5033    0.4407   -2.6671 H   0  0  0  0  0  0  0  0  0  0  0  0
   -0.6248   -0.6744    2.7934 H   0  0  0  0  0  0  0  0  0  0  0  0
   -1.1436    0.9609    2.3512 H   0  0  0  0  0  0  0  0  0  0  0  0
   -2.1467   -1.6155    1.0340 H   0  0  0  0  0  0  0  0  0  0  0  0
   -3.0172   -0.7126    2.2795 H   0  0  0  0  0  0  0  0  0  0  0  0
   -2.2151    0.3788   -0.4536 H   0  0  0  0  0  0  0  0  0  0  0  0
   -3.1106    1.2694    0.7796 H   0  0  0  0  0  0  0  0  0  0  0  0
   -4.9647   -0.4006    0.6373 H   0  0  0  0  0  0  0  0  0  0  0  0
   -4.0702   -1.2820   -0.6020 H   0  0  0  0  0  0  0  0  0  0  0  0
   -4.6551    0.3491   -0.9295 H   0  0  0  0  0  0  0  0  0  0  0  0
  1  2  3  0  0  0  0
  2  3  1  0  0  0  0
  3  4  1  0  0  0  0
  4  5  1  0  0  0  0
  5  6  2  0  0  0  0
  5  7  1  0  0  0  0
  7  8  3  0  0  0  0
  8  9  1  0  0  0  0
  9 10  1  0  0  0  0
 10 11  1  0  0  0  0
 11 12  1  0  0  0  0
  1 13  1  0  0  0  0
  3 14  1  0  0  0  0
  3 15  1  0  0  0  0
  9 16  1  0  0  0  0
  9 17  1  0  0  0  0
 10 18  1  0  0  0  0
 10 19  1  0  0  0  0
 11 20  1  0  0  0  0
 11 21  1  0  0  0  0
 12 22  1  0  0  0  0
 12 23  1  0  0  0  0
 12 24  1  0  0  0  0
M  END
