 xtb: 6.7.1 (edcfbbe)
          07072602213D

 36 35  0     0  0            999 V2000
   -4.0587    2.3493    0.5258 C   0  0  0  0  0  0  0  0  0  0  0  0
   -2.7588    1.5551    0.4754 C   0  0  0  0  0  0  0  0  0  0  0  0
   -2.9676    0.1179    0.9462 C   0  0  0  0  0  0  0  0  0  0  0  0
   -1.6724   -0.7052    0.9964 C   0  0  0  0  0  0  0  0  0  0  0  0
   -1.0305   -0.8645   -0.2905 N   0  0  0  0  0  0  0  0  0  0  0  0
    0.0661    0.0285   -0.6106 C   0  0  0  0  0  0  0  0  0  0  0  0
    1.4193   -0.5627   -0.1949 C   0  0  0  0  0  0  0  0  0  0  0  0
    2.4881    0.5071   -0.1827 C   0  0  0  0  0  0  0  0  0  0  0  0
    2.3092    1.6506    0.1498 O   0  0  0  0  0  0  0  0  0  0  0  0
    3.6647    0.0166   -0.5646 O   0  0  0  0  0  0  0  0  0  0  0  0
    4.7783    0.9151   -0.5735 C   0  0  0  0  0  0  0  0  0  0  0  0
    6.0577    0.0998   -0.5532 C   0  0  0  0  0  0  0  0  0  0  0  0
   -1.3117   -1.8458   -1.1864 C   0  0  0  0  0  0  0  0  0  0  0  0
   -2.3988   -2.8314   -0.8143 C   0  0  0  0  0  0  0  0  0  0  0  0
   -0.7051   -1.9339   -2.2373 O   0  0  0  0  0  0  0  0  0  0  0  0
   -4.8120    1.8905   -0.1109 H   0  0  0  0  0  0  0  0  0  0  0  0
   -4.4461    2.3869    1.5418 H   0  0  0  0  0  0  0  0  0  0  0  0
   -3.8953    3.3679    0.1831 H   0  0  0  0  0  0  0  0  0  0  0  0
   -2.3828    1.5492   -0.5489 H   0  0  0  0  0  0  0  0  0  0  0  0
   -2.0144    2.0431    1.1086 H   0  0  0  0  0  0  0  0  0  0  0  0
   -3.6878   -0.3657    0.2844 H   0  0  0  0  0  0  0  0  0  0  0  0
   -3.3955    0.1267    1.9515 H   0  0  0  0  0  0  0  0  0  0  0  0
   -0.9629   -0.2053    1.6612 H   0  0  0  0  0  0  0  0  0  0  0  0
   -1.8919   -1.6872    1.4236 H   0  0  0  0  0  0  0  0  0  0  0  0
   -0.0763    0.9823   -0.1025 H   0  0  0  0  0  0  0  0  0  0  0  0
    0.0643    0.1915   -1.6908 H   0  0  0  0  0  0  0  0  0  0  0  0
    1.3464   -0.9597    0.8219 H   0  0  0  0  0  0  0  0  0  0  0  0
    1.7138   -1.3720   -0.8611 H   0  0  0  0  0  0  0  0  0  0  0  0
    4.7176    1.5314   -1.4773 H   0  0  0  0  0  0  0  0  0  0  0  0
    4.7056    1.5752    0.2976 H   0  0  0  0  0  0  0  0  0  0  0  0
    6.0915   -0.5612   -1.4147 H   0  0  0  0  0  0  0  0  0  0  0  0
    6.1054   -0.5036    0.3494 H   0  0  0  0  0  0  0  0  0  0  0  0
    6.9150    0.7659   -0.5810 H   0  0  0  0  0  0  0  0  0  0  0  0
   -3.3314   -2.3312   -0.5727 H   0  0  0  0  0  0  0  0  0  0  0  0
   -2.0870   -3.4297    0.0398 H   0  0  0  0  0  0  0  0  0  0  0  0
   -2.5558   -3.4915   -1.6630 H   0  0  0  0  0  0  0  0  0  0  0  0
  1  2  1  0  0  0  0
  2  3  1  0  0  0  0
  3  4  1  0  0  0  0
  4  5  1  0  0  0  0
  5  6  1  0  0  0  0
  6  7  1  0  0  0  0
  7  8  1  0  0  0  0
  8  9  2  0  0  0  0
  8 10  1  0  0  0  0
 10 11  1  0  0  0  0
 11 12  1  0  0  0  0
  5 13  4  0  0  0  0
 13 14  1  0  0  0  0
 13 15  2  0  0  0  0
  1 16  1  0  0  0  0
  1 17  1  0  0  0  0
  1 18  1  0  0  0  0
  2 19  1  0  0  0  0
  2 20  1  0  0  0  0
  3 21  1  0  0  0  0
  3 22  1  0  0  0  0
  4 23  1  0  0  0  0
  4 24  1  0  0  0  0
  6 25  1  0  0  0  0
  6 26  1  0  0  0  0
  7 27  1  0  0  0  0
  7 28  1  0  0  0  0
 11 29  1  0  0  0  0
 11 30  1  0  0  0  0
 12 31  1  0  0  0  0
 12 32  1  0  0  0  0
 12 33  1  0  0  0  0
 14 34  1  0  0  0  0
 14 35  1  0  0  0  0
 14 36  1  0  0  0  0
M  END
