 xtb: 6.7.1 (edcfbbe)
          07082621423D

 22 21  0     0  0            999 V2000
   -2.6102    1.1904    0.8247 C   0  0  0  0  0  0  0  0  0  0  0  0
   -1.3439    0.3459    0.8733 C   0  0  0  0  0  0  0  0  0  0  0  0
   -0.7892    0.0860   -0.5347 C   0  0  0  0  0  0  0  0  0  0  0  0
    0.4777   -0.7148   -0.4808 C   0  0  0  0  0  0  0  0  0  0  0  0
    0.3080   -2.2005   -0.4799 C   0  0  0  0  0  0  0  0  0  0  0  0
    1.6863   -0.1323   -0.4122 C   0  0  0  0  0  0  0  0  0  0  0  0
    1.9296    1.3547   -0.4193 C   0  0  0  0  0  0  0  0  0  0  0  0
    2.8589   -0.9145   -0.3392 C   0  0  0  0  0  0  0  0  0  0  0  0
    3.8389   -1.5097   -0.2754 N   0  0  0  0  0  0  0  0  0  0  0  0
   -2.9929    1.3605    1.8282 H   0  0  0  0  0  0  0  0  0  0  0  0
   -3.3816    0.6899    0.2434 H   0  0  0  0  0  0  0  0  0  0  0  0
   -2.4094    2.1564    0.3661 H   0  0  0  0  0  0  0  0  0  0  0  0
   -1.5612   -0.6080    1.3583 H   0  0  0  0  0  0  0  0  0  0  0  0
   -0.5874    0.8549    1.4743 H   0  0  0  0  0  0  0  0  0  0  0  0
   -1.5393   -0.4613   -1.1100 H   0  0  0  0  0  0  0  0  0  0  0  0
   -0.6165    1.0443   -1.0276 H   0  0  0  0  0  0  0  0  0  0  0  0
   -0.1391   -2.5232   -1.4208 H   0  0  0  0  0  0  0  0  0  0  0  0
    1.2580   -2.7129   -0.3517 H   0  0  0  0  0  0  0  0  0  0  0  0
   -0.3659   -2.4995    0.3226 H   0  0  0  0  0  0  0  0  0  0  0  0
    1.3756    1.8432    0.3806 H   0  0  0  0  0  0  0  0  0  0  0  0
    2.9889    1.5625   -0.2833 H   0  0  0  0  0  0  0  0  0  0  0  0
    1.6147    1.7879   -1.3694 H   0  0  0  0  0  0  0  0  0  0  0  0
  1  2  1  0  0  0  0
  2  3  1  0  0  0  0
  3  4  1  0  0  0  0
  4  5  1  0  0  0  0
  4  6  2  0  0  0  0
  6  7  1  0  0  0  0
  6  8  1  0  0  0  0
  8  9  3  0  0  0  0
  1 10  1  0  0  0  0
  1 11  1  0  0  0  0
  1 12  1  0  0  0  0
  2 13  1  0  0  0  0
  2 14  1  0  0  0  0
  3 15  1  0  0  0  0
  3 16  1  0  0  0  0
  5 17  1  0  0  0  0
  5 18  1  0  0  0  0
  5 19  1  0  0  0  0
  7 20  1  0  0  0  0
  7 21  1  0  0  0  0
  7 22  1  0  0  0  0
M  END
