 xtb: 6.7.1 (edcfbbe)
          07082618393D

 15 15  0     0  0            999 V2000
    2.4074   -1.4071   -0.6116 O   0  0  0  0  0  0  0  0  0  0  0  0
    1.3536   -0.8769   -0.3807 C   0  0  0  0  0  0  0  0  0  0  0  0
    1.2797    0.5275    0.1935 C   0  0  0  0  0  0  0  0  0  0  0  0
   -0.0818    0.9145    0.7576 C   0  0  0  0  0  0  0  0  0  0  0  0
   -1.1522    0.4646   -0.2288 C   0  0  0  0  0  0  0  0  0  0  0  0
   -1.0669   -1.0484   -0.3529 C   0  0  0  0  0  0  0  0  0  0  0  0
    0.2277   -1.5252   -0.6965 O   0  0  0  0  0  0  0  0  0  0  0  0
    1.5457    1.1958   -0.6318 H   0  0  0  0  0  0  0  0  0  0  0  0
    2.0686    0.6159    0.9416 H   0  0  0  0  0  0  0  0  0  0  0  0
   -0.1263    1.9927    0.9186 H   0  0  0  0  0  0  0  0  0  0  0  0
   -0.2437    0.4242    1.7202 H   0  0  0  0  0  0  0  0  0  0  0  0
   -2.1503    0.7373    0.1139 H   0  0  0  0  0  0  0  0  0  0  0  0
   -0.9805    0.9295   -1.2017 H   0  0  0  0  0  0  0  0  0  0  0  0
   -1.3536   -1.5181    0.5970 H   0  0  0  0  0  0  0  0  0  0  0  0
   -1.7274   -1.4263   -1.1383 H   0  0  0  0  0  0  0  0  0  0  0  0
  1  2  2  0  0  0  0
  2  3  1  0  0  0  0
  3  4  1  0  0  0  0
  4  5  1  0  0  0  0
  5  6  1  0  0  0  0
  2  7  1  0  0  0  0
  6  7  1  0  0  0  0
  3  8  1  0  0  0  0
  3  9  1  0  0  0  0
  4 10  1  0  0  0  0
  4 11  1  0  0  0  0
  5 12  1  0  0  0  0
  5 13  1  0  0  0  0
  6 14  1  0  0  0  0
  6 15  1  0  0  0  0
M  END
