 xtb: 6.7.1 (edcfbbe)
          07072617383D

 14 13  0     0  0            999 V2000
    1.0181   -1.6350    1.0181 O   0  0  0  0  0  0  0  0  0  0  0  0
    1.0031   -1.1004   -0.2772 C   0  0  0  0  0  0  0  0  0  0  0  0
    0.3374    0.2809   -0.3000 C   0  0  0  0  0  0  0  0  0  0  0  0
    1.0576    1.1019    0.5934 O   0  0  0  0  0  0  0  0  0  0  0  0
   -1.1304    0.1950    0.1311 C   0  0  0  0  0  0  0  0  0  0  0  0
   -1.6206    1.5193    0.2223 O   0  0  0  0  0  0  0  0  0  0  0  0
    1.3855   -0.9477    1.5906 H   0  0  0  0  0  0  0  0  0  0  0  0
    2.0259   -0.9988   -0.6651 H   0  0  0  0  0  0  0  0  0  0  0  0
    0.4495   -1.8000   -0.9060 H   0  0  0  0  0  0  0  0  0  0  0  0
    0.3860    0.6992   -1.3171 H   0  0  0  0  0  0  0  0  0  0  0  0
    0.5161    1.8863    0.7468 H   0  0  0  0  0  0  0  0  0  0  0  0
   -1.6949   -0.3863   -0.6080 H   0  0  0  0  0  0  0  0  0  0  0  0
   -1.1888   -0.3093    1.1044 H   0  0  0  0  0  0  0  0  0  0  0  0
   -2.5445    1.4950    0.4875 H   0  0  0  0  0  0  0  0  0  0  0  0
  1  2  1  0  0  0  0
  2  3  1  0  0  0  0
  3  4  1  0  0  0  0
  3  5  1  0  0  0  0
  5  6  1  0  0  0  0
  1  7  1  0  0  0  0
  2  8  1  0  0  0  0
  2  9  1  0  0  0  0
  3 10  1  0  0  0  0
  4 11  1  0  0  0  0
  5 12  1  0  0  0  0
  5 13  1  0  0  0  0
  6 14  1  0  0  0  0
M  END
