 xtb: 6.7.1 (edcfbbe)
          07092612513D

 29 29  0     0  0            999 V2000
    2.9022   -1.3736   -1.0810 C   0  0  0  0  0  0  0  0  0  0  0  0
    2.4232   -0.3886   -0.3376 C   0  0  0  0  0  0  0  0  0  0  0  0
    2.9823   -0.0734    1.0171 C   0  0  0  0  0  0  0  0  0  0  0  0
    1.2934    0.4831   -0.8056 C   0  0  0  0  0  0  0  0  0  0  0  0
    0.0098    0.3009    0.0183 C   0  0  0  0  0  0  0  0  0  0  0  0
   -0.5319   -1.1218   -0.1111 C   0  0  0  0  0  0  0  0  0  0  0  0
   -1.8128   -1.3049    0.6958 C   0  0  0  0  0  0  0  0  0  0  0  0
   -2.8713   -0.3083    0.2357 C   0  0  0  0  0  0  0  0  0  0  0  0
   -2.3466    1.1165    0.3701 C   0  0  0  0  0  0  0  0  0  0  0  0
   -1.0552    1.3082   -0.4314 C   0  0  0  0  0  0  0  0  0  0  0  0
   -0.5311    2.6105   -0.2474 O   0  0  0  0  0  0  0  0  0  0  0  0
    3.7195   -1.9930   -0.7507 H   0  0  0  0  0  0  0  0  0  0  0  0
    2.4989   -1.6019   -2.0533 H   0  0  0  0  0  0  0  0  0  0  0  0
    2.2680   -0.3409    1.7952 H   0  0  0  0  0  0  0  0  0  0  0  0
    3.9025   -0.6238    1.1960 H   0  0  0  0  0  0  0  0  0  0  0  0
    3.1837    0.9929    1.1046 H   0  0  0  0  0  0  0  0  0  0  0  0
    1.0719    0.2656   -1.8527 H   0  0  0  0  0  0  0  0  0  0  0  0
    1.5884    1.5318   -0.7300 H   0  0  0  0  0  0  0  0  0  0  0  0
    0.2300    0.5151    1.0678 H   0  0  0  0  0  0  0  0  0  0  0  0
    0.2294   -1.8274    0.2257 H   0  0  0  0  0  0  0  0  0  0  0  0
   -0.7349   -1.3315   -1.1642 H   0  0  0  0  0  0  0  0  0  0  0  0
   -1.6022   -1.1463    1.7559 H   0  0  0  0  0  0  0  0  0  0  0  0
   -2.1845   -2.3246    0.5771 H   0  0  0  0  0  0  0  0  0  0  0  0
   -3.7813   -0.4231    0.8281 H   0  0  0  0  0  0  0  0  0  0  0  0
   -3.1240   -0.5042   -0.8092 H   0  0  0  0  0  0  0  0  0  0  0  0
   -2.1367    1.3366    1.4195 H   0  0  0  0  0  0  0  0  0  0  0  0
   -3.1009    1.8287    0.0215 H   0  0  0  0  0  0  0  0  0  0  0  0
   -1.2691    1.1466   -1.5025 H   0  0  0  0  0  0  0  0  0  0  0  0
   -1.2207    3.2508   -0.4517 H   0  0  0  0  0  0  0  0  0  0  0  0
  1  2  2  0  0  0  0
  2  3  1  0  0  0  0
  2  4  1  0  0  0  0
  4  5  1  0  0  0  0
  5  6  1  0  0  0  0
  6  7  1  0  0  0  0
  7  8  1  0  0  0  0
  8  9  1  0  0  0  0
  5 10  1  0  0  0  0
  9 10  1  0  0  0  0
 10 11  1  0  0  0  0
  1 12  1  0  0  0  0
  1 13  1  0  0  0  0
  3 14  1  0  0  0  0
  3 15  1  0  0  0  0
  3 16  1  0  0  0  0
  4 17  1  0  0  0  0
  4 18  1  0  0  0  0
  5 19  1  0  0  0  0
  6 20  1  0  0  0  0
  6 21  1  0  0  0  0
  7 22  1  0  0  0  0
  7 23  1  0  0  0  0
  8 24  1  0  0  0  0
  8 25  1  0  0  0  0
  9 26  1  0  0  0  0
  9 27  1  0  0  0  0
 10 28  1  0  0  0  0
 11 29  1  0  0  0  0
M  END
