 xtb: 6.7.1 (edcfbbe)
          07082612253D

 42 44  0     0  0            999 V2000
   -2.4283   -2.5711    0.5188 C   0  0  0  0  0  0  0  0  0  0  0  0
   -2.0306   -1.1202    0.7561 C   0  0  0  0  0  0  0  0  0  0  0  0
   -3.0257   -0.1234    0.1517 C   0  0  0  0  0  0  0  0  0  0  0  0
   -2.2498    1.1897    0.1556 C   0  0  0  0  0  0  0  0  0  0  0  0
   -0.8738    0.7628   -0.3618 C   0  0  0  0  0  0  0  0  0  0  0  0
    0.3833    1.5793    0.0366 C   0  0  0  0  0  0  0  0  0  0  0  0
    0.8724    2.4368   -1.1326 C   0  0  0  0  0  0  0  0  0  0  0  0
    0.1352    2.5568    1.1949 C   0  0  0  0  0  0  0  0  0  0  0  0
    1.3696    0.4806    0.5318 C   0  0  0  0  0  0  0  0  0  0  0  0
    0.4225   -0.4790    1.2511 C   0  0  0  0  0  0  0  0  0  0  0  0
   -0.6612   -0.6716    0.1900 C   0  0  0  0  0  0  0  0  0  0  0  0
   -0.0809   -1.5866   -0.8915 C   0  0  0  0  0  0  0  0  0  0  0  0
    1.1638   -0.9808   -1.5433 C   0  0  0  0  0  0  0  0  0  0  0  0
    2.1324   -0.3154   -0.5555 C   0  0  0  0  0  0  0  0  0  0  0  0
    3.0364   -1.3766    0.0987 C   0  0  0  0  0  0  0  0  0  0  0  0
    2.9661    0.5320   -1.3357 O   0  0  0  0  0  0  0  0  0  0  0  0
   -2.5223   -2.7911   -0.5410 H   0  0  0  0  0  0  0  0  0  0  0  0
   -1.6980   -3.2500    0.9528 H   0  0  0  0  0  0  0  0  0  0  0  0
   -3.3908   -2.7635    0.9892 H   0  0  0  0  0  0  0  0  0  0  0  0
   -2.0107   -0.9591    1.8401 H   0  0  0  0  0  0  0  0  0  0  0  0
   -3.2662   -0.4164   -0.8721 H   0  0  0  0  0  0  0  0  0  0  0  0
   -3.9541   -0.0678    0.7200 H   0  0  0  0  0  0  0  0  0  0  0  0
   -2.7097    1.9531   -0.4712 H   0  0  0  0  0  0  0  0  0  0  0  0
   -2.1977    1.5657    1.1757 H   0  0  0  0  0  0  0  0  0  0  0  0
   -0.9404    0.7274   -1.4511 H   0  0  0  0  0  0  0  0  0  0  0  0
    1.7578    3.0018   -0.8492 H   0  0  0  0  0  0  0  0  0  0  0  0
    0.0911    3.1446   -1.4051 H   0  0  0  0  0  0  0  0  0  0  0  0
    1.1219    1.8454   -2.0056 H   0  0  0  0  0  0  0  0  0  0  0  0
   -0.2088    2.0599    2.0971 H   0  0  0  0  0  0  0  0  0  0  0  0
   -0.6027    3.3021    0.9083 H   0  0  0  0  0  0  0  0  0  0  0  0
    1.0605    3.0784    1.4343 H   0  0  0  0  0  0  0  0  0  0  0  0
    2.1119    0.9209    1.2072 H   0  0  0  0  0  0  0  0  0  0  0  0
    0.8899   -1.4135    1.5503 H   0  0  0  0  0  0  0  0  0  0  0  0
    0.0119   -0.0139    2.1470 H   0  0  0  0  0  0  0  0  0  0  0  0
   -0.8210   -1.7647   -1.6736 H   0  0  0  0  0  0  0  0  0  0  0  0
    0.1699   -2.5517   -0.4471 H   0  0  0  0  0  0  0  0  0  0  0  0
    0.8717   -0.2256   -2.2713 H   0  0  0  0  0  0  0  0  0  0  0  0
    1.7046   -1.7532   -2.0934 H   0  0  0  0  0  0  0  0  0  0  0  0
    3.5663   -0.9627    0.9557 H   0  0  0  0  0  0  0  0  0  0  0  0
    2.4746   -2.2466    0.4214 H   0  0  0  0  0  0  0  0  0  0  0  0
    3.7694   -1.7017   -0.6375 H   0  0  0  0  0  0  0  0  0  0  0  0
    3.5896    0.9690   -0.7459 H   0  0  0  0  0  0  0  0  0  0  0  0
  1  2  1  0  0  0  0
  2  3  1  0  0  0  0
  3  4  1  0  0  0  0
  4  5  1  0  0  0  0
  5  6  1  0  0  0  0
  6  7  1  0  0  0  0
  6  8  1  0  0  0  0
  6  9  1  0  0  0  0
  9 10  1  0  0  0  0
  2 11  1  0  0  0  0
  5 11  1  0  0  0  0
 10 11  1  0  0  0  0
 11 12  1  0  0  0  0
 12 13  1  0  0  0  0
  9 14  1  0  0  0  0
 13 14  1  0  0  0  0
 14 15  1  0  0  0  0
 14 16  1  0  0  0  0
  1 17  1  0  0  0  0
  1 18  1  0  0  0  0
  1 19  1  0  0  0  0
  2 20  1  0  0  0  0
  3 21  1  0  0  0  0
  3 22  1  0  0  0  0
  4 23  1  0  0  0  0
  4 24  1  0  0  0  0
  5 25  1  0  0  0  0
  7 26  1  0  0  0  0
  7 27  1  0  0  0  0
  7 28  1  0  0  0  0
  8 29  1  0  0  0  0
  8 30  1  0  0  0  0
  8 31  1  0  0  0  0
  9 32  1  0  0  0  0
 10 33  1  0  0  0  0
 10 34  1  0  0  0  0
 12 35  1  0  0  0  0
 12 36  1  0  0  0  0
 13 37  1  0  0  0  0
 13 38  1  0  0  0  0
 15 39  1  0  0  0  0
 15 40  1  0  0  0  0
 15 41  1  0  0  0  0
 16 42  1  0  0  0  0
M  END
