 xtb: 6.7.1 (edcfbbe)
          07082620143D

 16 15  0     0  0            999 V2000
   -2.1731    0.8144    0.3877 C   0  0  0  0  0  0  0  0  0  0  0  0
   -1.1506    0.2403   -0.5497 C   0  0  0  0  0  0  0  0  0  0  0  0
   -0.9203    0.6939   -1.6411 O   0  0  0  0  0  0  0  0  0  0  0  0
   -0.4064   -0.9741   -0.0113 C   0  0  0  0  0  0  0  0  0  0  0  0
    1.0595   -0.9147   -0.4297 C   0  0  0  0  0  0  0  0  0  0  0  0
    1.7451    0.2521    0.2361 C   0  0  0  0  0  0  0  0  0  0  0  0
    1.2325    1.0092    1.0162 O   0  0  0  0  0  0  0  0  0  0  0  0
    3.0242    0.3571   -0.1389 O   0  0  0  0  0  0  0  0  0  0  0  0
   -2.7968    0.0279    0.8054 H   0  0  0  0  0  0  0  0  0  0  0  0
   -1.6345    1.2946    1.2035 H   0  0  0  0  0  0  0  0  0  0  0  0
   -2.7864    1.5539   -0.1199 H   0  0  0  0  0  0  0  0  0  0  0  0
   -0.8741   -1.8656   -0.4353 H   0  0  0  0  0  0  0  0  0  0  0  0
   -0.4917   -1.0142    1.0739 H   0  0  0  0  0  0  0  0  0  0  0  0
    1.1350   -0.7699   -1.5097 H   0  0  0  0  0  0  0  0  0  0  0  0
    1.5960   -1.8289   -0.1717 H   0  0  0  0  0  0  0  0  0  0  0  0
    3.4417    1.1239    0.2845 H   0  0  0  0  0  0  0  0  0  0  0  0
  1  2  1  0  0  0  0
  2  3  2  0  0  0  0
  2  4  1  0  0  0  0
  4  5  1  0  0  0  0
  5  6  1  0  0  0  0
  6  7  2  0  0  0  0
  6  8  1  0  0  0  0
  1  9  1  0  0  0  0
  1 10  1  0  0  0  0
  1 11  1  0  0  0  0
  4 12  1  0  0  0  0
  4 13  1  0  0  0  0
  5 14  1  0  0  0  0
  5 15  1  0  0  0  0
  8 16  1  0  0  0  0
M  END
