 xtb: 6.7.1 (edcfbbe)
          07072602063D

 77 78  0     0  0            999 V2000
    0.9331    1.6951    3.1687 C   0  0  0  0  0  0  0  0  0  0  0  0
    0.8425    1.5343    1.8537 C   0  0  0  0  0  0  0  0  0  0  0  0
   -0.4735    1.3654    1.1392 C   0  0  0  0  0  0  0  0  0  0  0  0
   -0.8874   -0.1080    1.1124 C   0  0  0  0  0  0  0  0  0  0  0  0
    0.0462   -0.9922    0.2774 C   0  0  0  0  0  0  0  0  0  0  0  0
   -0.7614   -2.2671    0.0216 C   0  0  0  0  0  0  0  0  0  0  0  0
   -2.1924   -1.8668    0.2257 C   0  0  0  0  0  0  0  0  0  0  0  0
   -3.0950   -2.7463    0.1903 N   0  0  0  0  0  0  0  0  0  0  0  0
   -4.4079   -2.3017    0.4849 O   0  0  0  0  0  0  0  0  0  0  0  0
   -5.3613   -2.7648   -0.3454 C   0  0  0  0  0  0  0  0  0  0  0  0
   -5.1536   -3.4412   -1.3179 O   0  0  0  0  0  0  0  0  0  0  0  0
   -6.6986   -2.2599    0.0586 C   0  0  0  0  0  0  0  0  0  0  0  0
   -7.7621   -2.4705   -0.8157 C   0  0  0  0  0  0  0  0  0  0  0  0
   -9.0207   -1.9936   -0.5035 C   0  0  0  0  0  0  0  0  0  0  0  0
   -9.2251   -1.3065    0.6827 C   0  0  0  0  0  0  0  0  0  0  0  0
   -8.1703   -1.0993    1.5578 C   0  0  0  0  0  0  0  0  0  0  0  0
   -6.9078   -1.5720    1.2506 C   0  0  0  0  0  0  0  0  0  0  0  0
   -2.2836   -0.3928    0.5237 C   0  0  0  0  0  0  0  0  0  0  0  0
   -2.5888    0.4094   -0.7535 C   0  0  0  0  0  0  0  0  0  0  0  0
   -3.9481    0.0659   -1.3593 C   0  0  0  0  0  0  0  0  0  0  0  0
   -4.3113    0.9952   -2.5144 C   0  0  0  0  0  0  0  0  0  0  0  0
   -5.6476    0.6292   -3.1619 C   0  0  0  0  0  0  0  0  0  0  0  0
   -6.8474    0.9246   -2.2687 C   0  0  0  0  0  0  0  0  0  0  0  0
    1.8761    1.4717    0.9731 O   0  0  0  0  0  0  0  0  0  0  0  0
    3.1918    1.5660    1.4749 C   0  0  0  0  0  0  0  0  0  0  0  0
    4.1401    1.4356    0.3218 C   0  0  0  0  0  0  0  0  0  0  0  0
    5.4546    1.6081    0.3897 C   0  0  0  0  0  0  0  0  0  0  0  0
    6.1549    1.9719    1.6656 C   0  0  0  0  0  0  0  0  0  0  0  0
    6.3187    1.4412   -0.8291 C   0  0  0  0  0  0  0  0  0  0  0  0
    6.8195   -0.0103   -0.9808 C   0  0  0  0  0  0  0  0  0  0  0  0
    7.7066   -0.4319    0.1510 C   0  0  0  0  0  0  0  0  0  0  0  0
    9.0109   -0.2061    0.2630 C   0  0  0  0  0  0  0  0  0  0  0  0
    9.8408    0.5220   -0.7520 C   0  0  0  0  0  0  0  0  0  0  0  0
    9.7825   -0.6652    1.4662 C   0  0  0  0  0  0  0  0  0  0  0  0
    1.8625    1.8001    3.6965 H   0  0  0  0  0  0  0  0  0  0  0  0
    0.0412    1.7299    3.7659 H   0  0  0  0  0  0  0  0  0  0  0  0
   -1.2411    1.9484    1.6490 H   0  0  0  0  0  0  0  0  0  0  0  0
   -0.3529    1.7377    0.1221 H   0  0  0  0  0  0  0  0  0  0  0  0
   -0.8835   -0.4761    2.1452 H   0  0  0  0  0  0  0  0  0  0  0  0
    0.2883   -0.4893   -0.6590 H   0  0  0  0  0  0  0  0  0  0  0  0
    0.9817   -1.1953    0.7948 H   0  0  0  0  0  0  0  0  0  0  0  0
   -0.5090   -3.0570    0.7300 H   0  0  0  0  0  0  0  0  0  0  0  0
   -0.6156   -2.6737   -0.9788 H   0  0  0  0  0  0  0  0  0  0  0  0
   -7.5755   -3.0050   -1.7346 H   0  0  0  0  0  0  0  0  0  0  0  0
   -9.8433   -2.1546   -1.1840 H   0  0  0  0  0  0  0  0  0  0  0  0
  -10.2082   -0.9318    0.9270 H   0  0  0  0  0  0  0  0  0  0  0  0
   -8.3341   -0.5661    2.4827 H   0  0  0  0  0  0  0  0  0  0  0  0
   -6.0835   -1.4153    1.9289 H   0  0  0  0  0  0  0  0  0  0  0  0
   -3.0780   -0.1954    1.2497 H   0  0  0  0  0  0  0  0  0  0  0  0
   -2.5819    1.4715   -0.5003 H   0  0  0  0  0  0  0  0  0  0  0  0
   -1.8086    0.2314   -1.4954 H   0  0  0  0  0  0  0  0  0  0  0  0
   -4.7118    0.1384   -0.5824 H   0  0  0  0  0  0  0  0  0  0  0  0
   -3.9379   -0.9594   -1.7338 H   0  0  0  0  0  0  0  0  0  0  0  0
   -3.5249    0.9399   -3.2714 H   0  0  0  0  0  0  0  0  0  0  0  0
   -4.3538    2.0268   -2.1556 H   0  0  0  0  0  0  0  0  0  0  0  0
   -5.7534    1.1953   -4.0907 H   0  0  0  0  0  0  0  0  0  0  0  0
   -5.6413   -0.4322   -3.4185 H   0  0  0  0  0  0  0  0  0  0  0  0
   -7.7727    0.7057   -2.7967 H   0  0  0  0  0  0  0  0  0  0  0  0
   -6.8270    0.3174   -1.3674 H   0  0  0  0  0  0  0  0  0  0  0  0
   -6.8579    1.9737   -1.9795 H   0  0  0  0  0  0  0  0  0  0  0  0
    3.3300    2.5312    1.9854 H   0  0  0  0  0  0  0  0  0  0  0  0
    3.3671    0.7670    2.2145 H   0  0  0  0  0  0  0  0  0  0  0  0
    3.6620    1.1838   -0.6133 H   0  0  0  0  0  0  0  0  0  0  0  0
    6.1221    3.0524    1.8114 H   0  0  0  0  0  0  0  0  0  0  0  0
    7.1964    1.6643    1.6284 H   0  0  0  0  0  0  0  0  0  0  0  0
    5.6802    1.5038    2.5248 H   0  0  0  0  0  0  0  0  0  0  0  0
    5.7474    1.7000   -1.7227 H   0  0  0  0  0  0  0  0  0  0  0  0
    7.1798    2.1079   -0.7631 H   0  0  0  0  0  0  0  0  0  0  0  0
    7.3485   -0.0929   -1.9326 H   0  0  0  0  0  0  0  0  0  0  0  0
    5.9513   -0.6703   -1.0212 H   0  0  0  0  0  0  0  0  0  0  0  0
    7.2028   -0.9500    0.9567 H   0  0  0  0  0  0  0  0  0  0  0  0
    9.3096    0.6703   -1.6868 H   0  0  0  0  0  0  0  0  0  0  0  0
   10.7567   -0.0324   -0.9532 H   0  0  0  0  0  0  0  0  0  0  0  0
   10.1279    1.5000   -0.3637 H   0  0  0  0  0  0  0  0  0  0  0  0
    9.1291   -1.1234    2.2041 H   0  0  0  0  0  0  0  0  0  0  0  0
   10.5393   -1.3930    1.1735 H   0  0  0  0  0  0  0  0  0  0  0  0
   10.2978    0.1765    1.9289 H   0  0  0  0  0  0  0  0  0  0  0  0
  1  2  2  0  0  0  0
  2  3  1  0  0  0  0
  3  4  1  0  0  0  0
  4  5  1  0  0  0  0
  5  6  1  0  0  0  0
  6  7  1  0  0  0  0
  7  8  2  0  0  0  0
  8  9  1  0  0  0  0
  9 10  1  0  0  0  0
 10 11  2  0  0  0  0
 10 12  1  0  0  0  0
 12 13  4  0  0  0  0
 13 14  4  0  0  0  0
 14 15  4  0  0  0  0
 15 16  4  0  0  0  0
 12 17  4  0  0  0  0
 16 17  4  0  0  0  0
  4 18  1  0  0  0  0
  7 18  1  0  0  0  0
 18 19  1  0  0  0  0
 19 20  1  0  0  0  0
 20 21  1  0  0  0  0
 21 22  1  0  0  0  0
 22 23  1  0  0  0  0
  2 24  1  0  0  0  0
 24 25  1  0  0  0  0
 25 26  1  0  0  0  0
 26 27  2  0  0  0  0
 27 28  1  0  0  0  0
 27 29  1  0  0  0  0
 29 30  1  0  0  0  0
 30 31  1  0  0  0  0
 31 32  2  0  0  0  0
 32 33  1  0  0  0  0
 32 34  1  0  0  0  0
  1 35  1  0  0  0  0
  1 36  1  0  0  0  0
  3 37  1  0  0  0  0
  3 38  1  0  0  0  0
  4 39  1  0  0  0  0
  5 40  1  0  0  0  0
  5 41  1  0  0  0  0
  6 42  1  0  0  0  0
  6 43  1  0  0  0  0
 13 44  1  0  0  0  0
 14 45  1  0  0  0  0
 15 46  1  0  0  0  0
 16 47  1  0  0  0  0
 17 48  1  0  0  0  0
 18 49  1  0  0  0  0
 19 50  1  0  0  0  0
 19 51  1  0  0  0  0
 20 52  1  0  0  0  0
 20 53  1  0  0  0  0
 21 54  1  0  0  0  0
 21 55  1  0  0  0  0
 22 56  1  0  0  0  0
 22 57  1  0  0  0  0
 23 58  1  0  0  0  0
 23 59  1  0  0  0  0
 23 60  1  0  0  0  0
 25 61  1  0  0  0  0
 25 62  1  0  0  0  0
 26 63  1  0  0  0  0
 28 64  1  0  0  0  0
 28 65  1  0  0  0  0
 28 66  1  0  0  0  0
 29 67  1  0  0  0  0
 29 68  1  0  0  0  0
 30 69  1  0  0  0  0
 30 70  1  0  0  0  0
 31 71  1  0  0  0  0
 33 72  1  0  0  0  0
 33 73  1  0  0  0  0
 33 74  1  0  0  0  0
 34 75  1  0  0  0  0
 34 76  1  0  0  0  0
 34 77  1  0  0  0  0
M  END
