 xtb: 6.7.1 (edcfbbe)
          07092607053D

 29 28  0     0  0            999 V2000
    5.1866   -0.3862    0.1824 C   0  0  0  0  0  0  0  0  0  0  0  0
    3.8717   -0.2478    0.9400 C   0  0  0  0  0  0  0  0  0  0  0  0
    2.6793   -0.1389   -0.0072 C   0  0  0  0  0  0  0  0  0  0  0  0
    1.3608   -0.0031    0.7485 C   0  0  0  0  0  0  0  0  0  0  0  0
    0.1718    0.1006   -0.2008 C   0  0  0  0  0  0  0  0  0  0  0  0
   -1.1388    0.2291    0.5436 C   0  0  0  0  0  0  0  0  0  0  0  0
   -1.2596    0.2684    1.7396 O   0  0  0  0  0  0  0  0  0  0  0  0
   -2.1578    0.3024   -0.3167 O   0  0  0  0  0  0  0  0  0  0  0  0
   -3.4834    0.4302    0.2274 C   0  0  0  0  0  0  0  0  0  0  0  0
   -4.0282   -0.9485    0.5848 C   0  0  0  0  0  0  0  0  0  0  0  0
   -4.3316    1.1300   -0.8242 C   0  0  0  0  0  0  0  0  0  0  0  0
    6.0217   -0.4625    0.8747 H   0  0  0  0  0  0  0  0  0  0  0  0
    5.1758   -1.2775   -0.4414 H   0  0  0  0  0  0  0  0  0  0  0  0
    5.3505    0.4772   -0.4589 H   0  0  0  0  0  0  0  0  0  0  0  0
    3.9095    0.6403    1.5745 H   0  0  0  0  0  0  0  0  0  0  0  0
    3.7352   -1.1133    1.5920 H   0  0  0  0  0  0  0  0  0  0  0  0
    2.8156    0.7280   -0.6585 H   0  0  0  0  0  0  0  0  0  0  0  0
    2.6434   -1.0270   -0.6430 H   0  0  0  0  0  0  0  0  0  0  0  0
    1.2192   -0.8648    1.4032 H   0  0  0  0  0  0  0  0  0  0  0  0
    1.3876    0.8840    1.3836 H   0  0  0  0  0  0  0  0  0  0  0  0
    0.1083   -0.7811   -0.8423 H   0  0  0  0  0  0  0  0  0  0  0  0
    0.2719    0.9698   -0.8548 H   0  0  0  0  0  0  0  0  0  0  0  0
   -3.4134    1.0408    1.1372 H   0  0  0  0  0  0  0  0  0  0  0  0
   -5.0352   -0.8557    0.9811 H   0  0  0  0  0  0  0  0  0  0  0  0
   -4.0495   -1.5816   -0.2994 H   0  0  0  0  0  0  0  0  0  0  0  0
   -3.3966   -1.4128    1.3383 H   0  0  0  0  0  0  0  0  0  0  0  0
   -3.9019    2.0967   -1.0733 H   0  0  0  0  0  0  0  0  0  0  0  0
   -5.3390    1.2775   -0.4461 H   0  0  0  0  0  0  0  0  0  0  0  0
   -4.3739    0.5257   -1.7266 H   0  0  0  0  0  0  0  0  0  0  0  0
  1  2  1  0  0  0  0
  2  3  1  0  0  0  0
  3  4  1  0  0  0  0
  4  5  1  0  0  0  0
  5  6  1  0  0  0  0
  6  7  2  0  0  0  0
  6  8  1  0  0  0  0
  8  9  1  0  0  0  0
  9 10  1  0  0  0  0
  9 11  1  0  0  0  0
  1 12  1  0  0  0  0
  1 13  1  0  0  0  0
  1 14  1  0  0  0  0
  2 15  1  0  0  0  0
  2 16  1  0  0  0  0
  3 17  1  0  0  0  0
  3 18  1  0  0  0  0
  4 19  1  0  0  0  0
  4 20  1  0  0  0  0
  5 21  1  0  0  0  0
  5 22  1  0  0  0  0
  9 23  1  0  0  0  0
 10 24  1  0  0  0  0
 10 25  1  0  0  0  0
 10 26  1  0  0  0  0
 11 27  1  0  0  0  0
 11 28  1  0  0  0  0
 11 29  1  0  0  0  0
M  END
