 xtb: 6.7.1 (edcfbbe)
          07072605243D

 42 41  0     0  0            999 V2000
    6.4026    1.0698   -1.3547 C   0  0  0  0  0  0  0  0  0  0  0  0
    5.6974   -0.2189   -0.9763 C   0  0  0  0  0  0  0  0  0  0  0  0
    4.3554    0.0942   -0.5990 O   0  0  0  0  0  0  0  0  0  0  0  0
    3.5886   -0.9337   -0.2152 C   0  0  0  0  0  0  0  0  0  0  0  0
    3.9818   -2.0699   -0.1673 O   0  0  0  0  0  0  0  0  0  0  0  0
    2.2047   -0.4608    0.1543 C   0  0  0  0  0  0  0  0  0  0  0  0
    1.2718   -1.6283    0.4580 C   0  0  0  0  0  0  0  0  0  0  0  0
   -0.0803   -1.1629    0.9963 C   0  0  0  0  0  0  0  0  0  0  0  0
   -0.8972   -0.4531   -0.0831 C   0  0  0  0  0  0  0  0  0  0  0  0
   -0.4579   -0.3365   -1.2127 O   0  0  0  0  0  0  0  0  0  0  0  0
   -2.1161    0.0310    0.2652 N   0  0  0  0  0  0  0  0  0  0  0  0
   -2.9174    0.7216   -0.7542 C   0  0  0  0  0  0  0  0  0  0  0  0
   -3.2796   -0.2121   -1.9090 C   0  0  0  0  0  0  0  0  0  0  0  0
   -2.2130    1.9810   -1.2589 C   0  0  0  0  0  0  0  0  0  0  0  0
   -2.7013   -0.0892    1.5935 C   0  0  0  0  0  0  0  0  0  0  0  0
   -3.9932   -0.9117    1.5685 C   0  0  0  0  0  0  0  0  0  0  0  0
   -2.9216    1.2835    2.2367 C   0  0  0  0  0  0  0  0  0  0  0  0
    7.4254    0.8537   -1.6497 H   0  0  0  0  0  0  0  0  0  0  0  0
    6.4121    1.7534   -0.5101 H   0  0  0  0  0  0  0  0  0  0  0  0
    5.8861    1.5483   -2.1822 H   0  0  0  0  0  0  0  0  0  0  0  0
    5.6724   -0.9218   -1.8166 H   0  0  0  0  0  0  0  0  0  0  0  0
    6.1947   -0.7153   -0.1351 H   0  0  0  0  0  0  0  0  0  0  0  0
    2.3002    0.1995    1.0205 H   0  0  0  0  0  0  0  0  0  0  0  0
    1.8080    0.1301   -0.6723 H   0  0  0  0  0  0  0  0  0  0  0  0
    1.1172   -2.1999   -0.4574 H   0  0  0  0  0  0  0  0  0  0  0  0
    1.7470   -2.2848    1.1890 H   0  0  0  0  0  0  0  0  0  0  0  0
    0.0802   -0.4869    1.8394 H   0  0  0  0  0  0  0  0  0  0  0  0
   -0.6382   -2.0348    1.3452 H   0  0  0  0  0  0  0  0  0  0  0  0
   -3.8443    1.0276   -0.2633 H   0  0  0  0  0  0  0  0  0  0  0  0
   -3.9482    0.3002   -2.5963 H   0  0  0  0  0  0  0  0  0  0  0  0
   -3.7780   -1.1038   -1.5358 H   0  0  0  0  0  0  0  0  0  0  0  0
   -2.3832   -0.5084   -2.4439 H   0  0  0  0  0  0  0  0  0  0  0  0
   -1.3071    1.7128   -1.7926 H   0  0  0  0  0  0  0  0  0  0  0  0
   -1.9530    2.6313   -0.4266 H   0  0  0  0  0  0  0  0  0  0  0  0
   -2.8722    2.5223   -1.9327 H   0  0  0  0  0  0  0  0  0  0  0  0
   -1.9921   -0.6286    2.2211 H   0  0  0  0  0  0  0  0  0  0  0  0
   -3.8157   -1.8703    1.0868 H   0  0  0  0  0  0  0  0  0  0  0  0
   -4.7897   -0.3990    1.0363 H   0  0  0  0  0  0  0  0  0  0  0  0
   -4.3276   -1.0931    2.5868 H   0  0  0  0  0  0  0  0  0  0  0  0
   -3.2355    1.1548    3.2695 H   0  0  0  0  0  0  0  0  0  0  0  0
   -3.6868    1.8545    1.7182 H   0  0  0  0  0  0  0  0  0  0  0  0
   -1.9962    1.8545    2.2247 H   0  0  0  0  0  0  0  0  0  0  0  0
  1  2  1  0  0  0  0
  2  3  1  0  0  0  0
  3  4  1  0  0  0  0
  4  5  2  0  0  0  0
  4  6  1  0  0  0  0
  6  7  1  0  0  0  0
  7  8  1  0  0  0  0
  8  9  1  0  0  0  0
  9 10  2  0  0  0  0
  9 11  4  0  0  0  0
 11 12  1  0  0  0  0
 12 13  1  0  0  0  0
 12 14  1  0  0  0  0
 11 15  1  0  0  0  0
 15 16  1  0  0  0  0
 15 17  1  0  0  0  0
  1 18  1  0  0  0  0
  1 19  1  0  0  0  0
  1 20  1  0  0  0  0
  2 21  1  0  0  0  0
  2 22  1  0  0  0  0
  6 23  1  0  0  0  0
  6 24  1  0  0  0  0
  7 25  1  0  0  0  0
  7 26  1  0  0  0  0
  8 27  1  0  0  0  0
  8 28  1  0  0  0  0
 12 29  1  0  0  0  0
 13 30  1  0  0  0  0
 13 31  1  0  0  0  0
 13 32  1  0  0  0  0
 14 33  1  0  0  0  0
 14 34  1  0  0  0  0
 14 35  1  0  0  0  0
 15 36  1  0  0  0  0
 16 37  1  0  0  0  0
 16 38  1  0  0  0  0
 16 39  1  0  0  0  0
 17 40  1  0  0  0  0
 17 41  1  0  0  0  0
 17 42  1  0  0  0  0
M  END
