 xtb: 6.7.1 (edcfbbe)
          07082611173D

 31 30  0     0  0            999 V2000
   -5.3539   -0.3322    0.8568 C   0  0  0  0  0  0  0  0  0  0  0  0
   -4.1652   -0.7199   -0.0142 C   0  0  0  0  0  0  0  0  0  0  0  0
   -2.8760   -0.0479    0.4520 C   0  0  0  0  0  0  0  0  0  0  0  0
   -1.6809   -0.4287   -0.4182 C   0  0  0  0  0  0  0  0  0  0  0  0
   -0.3935    0.2460    0.0494 C   0  0  0  0  0  0  0  0  0  0  0  0
    0.8023   -0.1369   -0.8194 C   0  0  0  0  0  0  0  0  0  0  0  0
    2.0847    0.5454   -0.3502 C   0  0  0  0  0  0  0  0  0  0  0  0
    3.2853    0.1565   -1.2235 C   0  0  0  0  0  0  0  0  0  0  0  0
    4.5159    0.8937   -0.7409 C   0  0  0  0  0  0  0  0  0  0  0  0
    5.3155    0.1664    0.3100 C   0  0  0  0  0  0  0  0  0  0  0  0
    4.8179    1.9846   -1.1527 O   0  0  0  0  0  0  0  0  0  0  0  0
   -5.1815   -0.6258    1.8901 H   0  0  0  0  0  0  0  0  0  0  0  0
   -5.5113    0.7439    0.8296 H   0  0  0  0  0  0  0  0  0  0  0  0
   -6.2607   -0.8207    0.5079 H   0  0  0  0  0  0  0  0  0  0  0  0
   -4.0356   -1.8044    0.0105 H   0  0  0  0  0  0  0  0  0  0  0  0
   -4.3658   -0.4350   -1.0495 H   0  0  0  0  0  0  0  0  0  0  0  0
   -3.0072    1.0366    0.4298 H   0  0  0  0  0  0  0  0  0  0  0  0
   -2.6748   -0.3342    1.4871 H   0  0  0  0  0  0  0  0  0  0  0  0
   -1.5494   -1.5133   -0.3961 H   0  0  0  0  0  0  0  0  0  0  0  0
   -1.8826   -0.1426   -1.4532 H   0  0  0  0  0  0  0  0  0  0  0  0
   -0.1937   -0.0377    1.0856 H   0  0  0  0  0  0  0  0  0  0  0  0
   -0.5246    1.3301    0.0242 H   0  0  0  0  0  0  0  0  0  0  0  0
    0.9369   -1.2210   -0.7915 H   0  0  0  0  0  0  0  0  0  0  0  0
    0.6006    0.1448   -1.8551 H   0  0  0  0  0  0  0  0  0  0  0  0
    1.9567    1.6290   -0.3873 H   0  0  0  0  0  0  0  0  0  0  0  0
    2.2811    0.2684    0.6883 H   0  0  0  0  0  0  0  0  0  0  0  0
    3.0794    0.4476   -2.2547 H   0  0  0  0  0  0  0  0  0  0  0  0
    3.4412   -0.9217   -1.1755 H   0  0  0  0  0  0  0  0  0  0  0  0
    5.8236   -0.6756   -0.1574 H   0  0  0  0  0  0  0  0  0  0  0  0
    4.6585   -0.2235    1.0834 H   0  0  0  0  0  0  0  0  0  0  0  0
    6.0572    0.8281    0.7491 H   0  0  0  0  0  0  0  0  0  0  0  0
  1  2  1  0  0  0  0
  2  3  1  0  0  0  0
  3  4  1  0  0  0  0
  4  5  1  0  0  0  0
  5  6  1  0  0  0  0
  6  7  1  0  0  0  0
  7  8  1  0  0  0  0
  8  9  1  0  0  0  0
  9 10  1  0  0  0  0
  9 11  2  0  0  0  0
  1 12  1  0  0  0  0
  1 13  1  0  0  0  0
  1 14  1  0  0  0  0
  2 15  1  0  0  0  0
  2 16  1  0  0  0  0
  3 17  1  0  0  0  0
  3 18  1  0  0  0  0
  4 19  1  0  0  0  0
  4 20  1  0  0  0  0
  5 21  1  0  0  0  0
  5 22  1  0  0  0  0
  6 23  1  0  0  0  0
  6 24  1  0  0  0  0
  7 25  1  0  0  0  0
  7 26  1  0  0  0  0
  8 27  1  0  0  0  0
  8 28  1  0  0  0  0
 10 29  1  0  0  0  0
 10 30  1  0  0  0  0
 10 31  1  0  0  0  0
M  END
