 xtb: 6.7.1 (edcfbbe)
          07082602363D

 24 24  0     0  0            999 V2000
   -4.2994   -0.0068    0.5552 C   0  0  0  0  0  0  0  0  0  0  0  0
   -3.1192   -0.7594   -0.0438 C   0  0  0  0  0  0  0  0  0  0  0  0
   -1.8063   -0.0292    0.2177 C   0  0  0  0  0  0  0  0  0  0  0  0
   -0.7630   -0.7875   -0.3670 O   0  0  0  0  0  0  0  0  0  0  0  0
    0.5094   -0.3484   -0.2725 C   0  0  0  0  0  0  0  0  0  0  0  0
    1.4782   -1.1596   -0.8788 C   0  0  0  0  0  0  0  0  0  0  0  0
    2.8053   -0.8075   -0.8430 C   0  0  0  0  0  0  0  0  0  0  0  0
    3.2094    0.3666   -0.2006 C   0  0  0  0  0  0  0  0  0  0  0  0
    4.6170    0.7532   -0.1556 C   0  0  0  0  0  0  0  0  0  0  0  0
    5.0572    1.7440    0.3748 O   0  0  0  0  0  0  0  0  0  0  0  0
    2.2416    1.1708    0.4016 C   0  0  0  0  0  0  0  0  0  0  0  0
    0.9075    0.8250    0.3704 C   0  0  0  0  0  0  0  0  0  0  0  0
   -4.3790    0.9882    0.1232 H   0  0  0  0  0  0  0  0  0  0  0  0
   -4.1827    0.0951    1.6318 H   0  0  0  0  0  0  0  0  0  0  0  0
   -5.2249   -0.5411    0.3593 H   0  0  0  0  0  0  0  0  0  0  0  0
   -3.0534   -1.7599    0.3862 H   0  0  0  0  0  0  0  0  0  0  0  0
   -3.2495   -0.8672   -1.1216 H   0  0  0  0  0  0  0  0  0  0  0  0
   -1.6402    0.0706    1.2990 H   0  0  0  0  0  0  0  0  0  0  0  0
   -1.8388    0.9744   -0.2278 H   0  0  0  0  0  0  0  0  0  0  0  0
    1.1490   -2.0616   -1.3700 H   0  0  0  0  0  0  0  0  0  0  0  0
    3.5445   -1.4395   -1.3134 H   0  0  0  0  0  0  0  0  0  0  0  0
    5.2917    0.0359   -0.6663 H   0  0  0  0  0  0  0  0  0  0  0  0
    2.5619    2.0759    0.8957 H   0  0  0  0  0  0  0  0  0  0  0  0
    0.1836    1.4681    0.8453 H   0  0  0  0  0  0  0  0  0  0  0  0
  1  2  1  0  0  0  0
  2  3  1  0  0  0  0
  3  4  1  0  0  0  0
  4  5  1  0  0  0  0
  5  6  4  0  0  0  0
  6  7  2  0  0  0  0
  7  8  4  0  0  0  0
  8  9  1  0  0  0  0
  9 10  2  0  0  0  0
  8 11  4  0  0  0  0
  5 12  4  0  0  0  0
 11 12  4  0  0  0  0
  1 13  1  0  0  0  0
  1 14  1  0  0  0  0
  1 15  1  0  0  0  0
  2 16  1  0  0  0  0
  2 17  1  0  0  0  0
  3 18  1  0  0  0  0
  3 19  1  0  0  0  0
  6 20  1  0  0  0  0
  7 21  1  0  0  0  0
  9 22  1  0  0  0  0
 11 23  1  0  0  0  0
 12 24  1  0  0  0  0
M  END
