 xtb: 6.7.1 (edcfbbe)
          07082613353D

 35 35  0     0  0            999 V2000
    2.3251    0.6962    1.8762 O   0  0  0  0  0  0  0  0  0  0  0  0
    2.1769    0.9008    0.6975 C   0  0  0  0  0  0  0  0  0  0  0  0
    2.5449   -0.1158   -0.3634 C   0  0  0  0  0  0  0  0  0  0  0  0
    2.4360   -1.5709    0.1095 C   0  0  0  0  0  0  0  0  0  0  0  0
    1.0653   -1.9337    0.6864 C   0  0  0  0  0  0  0  0  0  0  0  0
   -0.0853   -1.7641   -0.3053 C   0  0  0  0  0  0  0  0  0  0  0  0
   -1.4471   -1.7275    0.3893 C   0  0  0  0  0  0  0  0  0  0  0  0
   -2.5598   -1.1368   -0.4796 C   0  0  0  0  0  0  0  0  0  0  0  0
   -2.3441    0.2927   -0.9928 C   0  0  0  0  0  0  0  0  0  0  0  0
   -2.1752    1.3758    0.0808 C   0  0  0  0  0  0  0  0  0  0  0  0
   -0.7588    1.5811    0.6282 C   0  0  0  0  0  0  0  0  0  0  0  0
    0.2323    2.1181   -0.4030 C   0  0  0  0  0  0  0  0  0  0  0  0
    1.6504    2.2259    0.1754 C   0  0  0  0  0  0  0  0  0  0  0  0
    1.9562    0.0517   -1.2645 H   0  0  0  0  0  0  0  0  0  0  0  0
    3.5886    0.0870   -0.6253 H   0  0  0  0  0  0  0  0  0  0  0  0
    2.6696   -2.2273   -0.7320 H   0  0  0  0  0  0  0  0  0  0  0  0
    3.1831   -1.7380    0.8873 H   0  0  0  0  0  0  0  0  0  0  0  0
    1.0963   -2.9673    1.0383 H   0  0  0  0  0  0  0  0  0  0  0  0
    0.8888   -1.3039    1.5601 H   0  0  0  0  0  0  0  0  0  0  0  0
   -0.0658   -2.5709   -1.0415 H   0  0  0  0  0  0  0  0  0  0  0  0
    0.0518   -0.8299   -0.8427 H   0  0  0  0  0  0  0  0  0  0  0  0
   -1.3727   -1.1485    1.3108 H   0  0  0  0  0  0  0  0  0  0  0  0
   -1.7358   -2.7415    0.6770 H   0  0  0  0  0  0  0  0  0  0  0  0
   -3.4872   -1.1582    0.0987 H   0  0  0  0  0  0  0  0  0  0  0  0
   -2.7046   -1.7818   -1.3508 H   0  0  0  0  0  0  0  0  0  0  0  0
   -1.5012    0.3161   -1.6832 H   0  0  0  0  0  0  0  0  0  0  0  0
   -3.2299    0.5456   -1.5821 H   0  0  0  0  0  0  0  0  0  0  0  0
   -2.8390    1.1422    0.9163 H   0  0  0  0  0  0  0  0  0  0  0  0
   -2.5089    2.3282   -0.3408 H   0  0  0  0  0  0  0  0  0  0  0  0
   -0.3727    0.6508    1.0364 H   0  0  0  0  0  0  0  0  0  0  0  0
   -0.8155    2.2947    1.4543 H   0  0  0  0  0  0  0  0  0  0  0  0
   -0.0857    3.1092   -0.7356 H   0  0  0  0  0  0  0  0  0  0  0  0
    0.2493    1.4740   -1.2833 H   0  0  0  0  0  0  0  0  0  0  0  0
    1.6473    2.9363    1.0044 H   0  0  0  0  0  0  0  0  0  0  0  0
    2.3276    2.5896   -0.6008 H   0  0  0  0  0  0  0  0  0  0  0  0
  1  2  2  0  0  0  0
  2  3  1  0  0  0  0
  3  4  1  0  0  0  0
  4  5  1  0  0  0  0
  5  6  1  0  0  0  0
  6  7  1  0  0  0  0
  7  8  1  0  0  0  0
  8  9  1  0  0  0  0
  9 10  1  0  0  0  0
 10 11  1  0  0  0  0
 11 12  1  0  0  0  0
  2 13  1  0  0  0  0
 12 13  1  0  0  0  0
  3 14  1  0  0  0  0
  3 15  1  0  0  0  0
  4 16  1  0  0  0  0
  4 17  1  0  0  0  0
  5 18  1  0  0  0  0
  5 19  1  0  0  0  0
  6 20  1  0  0  0  0
  6 21  1  0  0  0  0
  7 22  1  0  0  0  0
  7 23  1  0  0  0  0
  8 24  1  0  0  0  0
  8 25  1  0  0  0  0
  9 26  1  0  0  0  0
  9 27  1  0  0  0  0
 10 28  1  0  0  0  0
 10 29  1  0  0  0  0
 11 30  1  0  0  0  0
 11 31  1  0  0  0  0
 12 32  1  0  0  0  0
 12 33  1  0  0  0  0
 13 34  1  0  0  0  0
 13 35  1  0  0  0  0
M  END
