 xtb: 6.7.1 (edcfbbe)
          07072623303D

 28 28  0     0  0            999 V2000
   -2.9184    0.7046    1.1806 C   0  0  0  0  0  0  0  0  0  0  0  0
   -2.9690   -0.4847    0.2299 C   0  0  0  0  0  0  0  0  0  0  0  0
   -1.5747   -0.8407   -0.2912 C   0  0  0  0  0  0  0  0  0  0  0  0
   -1.0795    0.2483   -1.2272 C   0  0  0  0  0  0  0  0  0  0  0  0
   -1.8071    0.7695   -2.0494 O   0  0  0  0  0  0  0  0  0  0  0  0
    0.2153    0.6463   -1.0734 N   0  0  0  0  0  0  0  0  0  0  0  0
    0.7009    1.7648   -1.8593 C   0  0  0  0  0  0  0  0  0  0  0  0
    1.1679    0.0028   -0.2511 C   0  0  0  0  0  0  0  0  0  0  0  0
    1.4879   -1.3359   -0.4597 C   0  0  0  0  0  0  0  0  0  0  0  0
    2.4446   -1.9524    0.3254 C   0  0  0  0  0  0  0  0  0  0  0  0
    3.0996   -1.2390    1.3155 C   0  0  0  0  0  0  0  0  0  0  0  0
    2.7917    0.0955    1.5189 C   0  0  0  0  0  0  0  0  0  0  0  0
    1.8317    0.7168    0.7409 C   0  0  0  0  0  0  0  0  0  0  0  0
   -2.5317    1.5808    0.6653 H   0  0  0  0  0  0  0  0  0  0  0  0
   -2.2739    0.4901    2.0317 H   0  0  0  0  0  0  0  0  0  0  0  0
   -3.9133    0.9379    1.5521 H   0  0  0  0  0  0  0  0  0  0  0  0
   -3.3921   -1.3502    0.7440 H   0  0  0  0  0  0  0  0  0  0  0  0
   -3.6065   -0.2429   -0.6216 H   0  0  0  0  0  0  0  0  0  0  0  0
   -0.8883   -0.9835    0.5434 H   0  0  0  0  0  0  0  0  0  0  0  0
   -1.6310   -1.7709   -0.8618 H   0  0  0  0  0  0  0  0  0  0  0  0
    1.5992    1.4776   -2.4080 H   0  0  0  0  0  0  0  0  0  0  0  0
   -0.0864    2.0379   -2.5604 H   0  0  0  0  0  0  0  0  0  0  0  0
    0.9286    2.6224   -1.2239 H   0  0  0  0  0  0  0  0  0  0  0  0
    0.9844   -1.8844   -1.2416 H   0  0  0  0  0  0  0  0  0  0  0  0
    2.6854   -2.9916    0.1576 H   0  0  0  0  0  0  0  0  0  0  0  0
    3.8494   -1.7210    1.9243 H   0  0  0  0  0  0  0  0  0  0  0  0
    3.2991    0.6560    2.2900 H   0  0  0  0  0  0  0  0  0  0  0  0
    1.5864    1.7545    0.9089 H   0  0  0  0  0  0  0  0  0  0  0  0
  1  2  1  0  0  0  0
  2  3  1  0  0  0  0
  3  4  1  0  0  0  0
  4  5  2  0  0  0  0
  4  6  4  0  0  0  0
  6  7  1  0  0  0  0
  6  8  1  0  0  0  0
  8  9  4  0  0  0  0
  9 10  4  0  0  0  0
 10 11  4  0  0  0  0
 11 12  4  0  0  0  0
  8 13  4  0  0  0  0
 12 13  4  0  0  0  0
  1 14  1  0  0  0  0
  1 15  1  0  0  0  0
  1 16  1  0  0  0  0
  2 17  1  0  0  0  0
  2 18  1  0  0  0  0
  3 19  1  0  0  0  0
  3 20  1  0  0  0  0
  7 21  1  0  0  0  0
  7 22  1  0  0  0  0
  7 23  1  0  0  0  0
  9 24  1  0  0  0  0
 10 25  1  0  0  0  0
 11 26  1  0  0  0  0
 12 27  1  0  0  0  0
 13 28  1  0  0  0  0
M  END
