 xtb: 6.7.1 (edcfbbe)
          07082614353D

 29 30  0     0  0            999 V2000
    2.5145   -1.3133   -1.1356 O   0  0  0  0  0  0  0  0  0  0  0  0
    3.0967   -0.8990    0.0755 C   0  0  0  0  0  0  0  0  0  0  0  0
    2.0686   -0.6920    1.2016 C   0  0  0  0  0  0  0  0  0  0  0  0
    1.0614    0.3581    0.8096 C   0  0  0  0  0  0  0  0  0  0  0  0
    1.4163    1.6899    0.9783 C   0  0  0  0  0  0  0  0  0  0  0  0
    0.5549    2.7053    0.6087 C   0  0  0  0  0  0  0  0  0  0  0  0
   -0.6764    2.3845    0.0740 C   0  0  0  0  0  0  0  0  0  0  0  0
   -1.0557    1.0592   -0.1044 C   0  0  0  0  0  0  0  0  0  0  0  0
   -0.1793    0.0320    0.2470 C   0  0  0  0  0  0  0  0  0  0  0  0
   -0.5731   -1.4144    0.0695 C   0  0  0  0  0  0  0  0  0  0  0  0
   -1.7768   -1.6002   -0.8477 C   0  0  0  0  0  0  0  0  0  0  0  0
   -2.8842   -0.6388   -0.4427 C   0  0  0  0  0  0  0  0  0  0  0  0
   -2.4110    0.7850   -0.7005 C   0  0  0  0  0  0  0  0  0  0  0  0
    1.8830   -0.6369   -1.4107 H   0  0  0  0  0  0  0  0  0  0  0  0
    3.7994   -1.6891    0.3508 H   0  0  0  0  0  0  0  0  0  0  0  0
    3.6600    0.0339   -0.0744 H   0  0  0  0  0  0  0  0  0  0  0  0
    2.6101   -0.3644    2.0909 H   0  0  0  0  0  0  0  0  0  0  0  0
    1.5856   -1.6410    1.4281 H   0  0  0  0  0  0  0  0  0  0  0  0
    2.3775    1.9288    1.4112 H   0  0  0  0  0  0  0  0  0  0  0  0
    0.8392    3.7382    0.7450 H   0  0  0  0  0  0  0  0  0  0  0  0
   -1.3635    3.1695   -0.2088 H   0  0  0  0  0  0  0  0  0  0  0  0
   -0.8137   -1.8245    1.0572 H   0  0  0  0  0  0  0  0  0  0  0  0
    0.2665   -1.9868   -0.3278 H   0  0  0  0  0  0  0  0  0  0  0  0
   -2.1215   -2.6344   -0.7892 H   0  0  0  0  0  0  0  0  0  0  0  0
   -1.4879   -1.4023   -1.8827 H   0  0  0  0  0  0  0  0  0  0  0  0
   -3.1100   -0.7681    0.6182 H   0  0  0  0  0  0  0  0  0  0  0  0
   -3.7962   -0.8367   -1.0092 H   0  0  0  0  0  0  0  0  0  0  0  0
   -3.1308    1.5037   -0.3012 H   0  0  0  0  0  0  0  0  0  0  0  0
   -2.3536    0.9538   -1.7817 H   0  0  0  0  0  0  0  0  0  0  0  0
  1  2  1  0  0  0  0
  2  3  1  0  0  0  0
  3  4  1  0  0  0  0
  4  5  4  0  0  0  0
  5  6  4  0  0  0  0
  6  7  4  0  0  0  0
  7  8  4  0  0  0  0
  4  9  4  0  0  0  0
  8  9  4  0  0  0  0
  9 10  1  0  0  0  0
 10 11  1  0  0  0  0
 11 12  1  0  0  0  0
  8 13  1  0  0  0  0
 12 13  1  0  0  0  0
  1 14  1  0  0  0  0
  2 15  1  0  0  0  0
  2 16  1  0  0  0  0
  3 17  1  0  0  0  0
  3 18  1  0  0  0  0
  5 19  1  0  0  0  0
  6 20  1  0  0  0  0
  7 21  1  0  0  0  0
 10 22  1  0  0  0  0
 10 23  1  0  0  0  0
 11 24  1  0  0  0  0
 11 25  1  0  0  0  0
 12 26  1  0  0  0  0
 12 27  1  0  0  0  0
 13 28  1  0  0  0  0
 13 29  1  0  0  0  0
M  END
