 xtb: 6.7.1 (edcfbbe)
          07092604093D

 23 23  0     0  0            999 V2000
   -1.9190    0.3667   -0.5543 C   0  0  0  0  0  0  0  0  0  0  0  0
   -0.9798    0.3344    0.6507 C   0  0  0  0  0  0  0  0  0  0  0  0
   -1.6877   -0.2749    1.8634 C   0  0  0  0  0  0  0  0  0  0  0  0
    0.3154   -0.4520    0.3449 C   0  0  0  0  0  0  0  0  0  0  0  0
    0.0648   -1.7993    0.0179 O   0  0  0  0  0  0  0  0  0  0  0  0
    1.0945    0.1238   -0.8541 C   0  0  0  0  0  0  0  0  0  0  0  0
    2.4503   -0.5559   -1.0023 C   0  0  0  0  0  0  0  0  0  0  0  0
    1.3110    1.5682   -0.6422 N   0  0  0  0  0  0  0  0  0  0  0  0
    1.9618    1.8957    0.3209 O   0  0  0  0  0  0  0  0  0  0  0  0
    0.8222    2.3284   -1.4430 O   0  0  0  0  0  0  0  0  0  0  0  0
   -1.5469    1.0338   -1.3274 H   0  0  0  0  0  0  0  0  0  0  0  0
   -2.0270   -0.6326   -0.9712 H   0  0  0  0  0  0  0  0  0  0  0  0
   -2.8999    0.7229   -0.2503 H   0  0  0  0  0  0  0  0  0  0  0  0
   -0.6913    1.3574    0.9136 H   0  0  0  0  0  0  0  0  0  0  0  0
   -2.4918    0.3803    2.1878 H   0  0  0  0  0  0  0  0  0  0  0  0
   -2.1278   -1.2403    1.6176 H   0  0  0  0  0  0  0  0  0  0  0  0
   -0.9965   -0.3999    2.6950 H   0  0  0  0  0  0  0  0  0  0  0  0
    0.9707   -0.3939    1.2308 H   0  0  0  0  0  0  0  0  0  0  0  0
   -0.4502   -2.1920    0.7304 H   0  0  0  0  0  0  0  0  0  0  0  0
    0.5010    0.0049   -1.7629 H   0  0  0  0  0  0  0  0  0  0  0  0
    2.9482   -0.2245   -1.9106 H   0  0  0  0  0  0  0  0  0  0  0  0
    3.0781   -0.3210   -0.1455 H   0  0  0  0  0  0  0  0  0  0  0  0
    2.2999   -1.6302   -1.0507 H   0  0  0  0  0  0  0  0  0  0  0  0
  1  2  1  0  0  0  0
  2  3  1  0  0  0  0
  2  4  1  0  0  0  0
  4  5  1  0  0  0  0
  4  6  1  0  0  0  0
  6  7  1  0  0  0  0
  6  8  1  0  0  0  0
  8  9  4  0  0  0  0
  8 10  4  0  0  0  0
  9 10  1  0  0  0  0
  1 11  1  0  0  0  0
  1 12  1  0  0  0  0
  1 13  1  0  0  0  0
  2 14  1  0  0  0  0
  3 15  1  0  0  0  0
  3 16  1  0  0  0  0
  3 17  1  0  0  0  0
  4 18  1  0  0  0  0
  5 19  1  0  0  0  0
  6 20  1  0  0  0  0
  7 21  1  0  0  0  0
  7 22  1  0  0  0  0
  7 23  1  0  0  0  0
M  END
