 xtb: 6.7.1 (edcfbbe)
          07062620103D

 30 29  0     0  0            999 V2000
   -4.1819   -0.7090   -0.9455 C   0  0  0  0  0  0  0  0  0  0  0  0
   -3.2229    0.4531   -1.1580 C   0  0  0  0  0  0  0  0  0  0  0  0
   -2.4083    0.6736   -0.0027 O   0  0  0  0  0  0  0  0  0  0  0  0
   -1.3226   -0.0765    0.1279 C   0  0  0  0  0  0  0  0  0  0  0  0
   -0.9676   -0.9212   -0.6531 O   0  0  0  0  0  0  0  0  0  0  0  0
   -0.5882    0.2560    1.4207 C   0  0  0  0  0  0  0  0  0  0  0  0
   -1.2810   -0.4466    2.5883 C   0  0  0  0  0  0  0  0  0  0  0  0
    0.8706   -0.1989    1.2690 C   0  0  0  0  0  0  0  0  0  0  0  0
    1.6612    0.1777    2.4128 C   0  0  0  0  0  0  0  0  0  0  0  0
    2.2811    0.4940    3.3192 N   0  0  0  0  0  0  0  0  0  0  0  0
    1.4968    0.4575    0.0306 C   0  0  0  0  0  0  0  0  0  0  0  0
    1.0925    1.4720   -0.4675 O   0  0  0  0  0  0  0  0  0  0  0  0
    2.5384   -0.2398   -0.3874 O   0  0  0  0  0  0  0  0  0  0  0  0
    3.2288    0.2624   -1.5384 C   0  0  0  0  0  0  0  0  0  0  0  0
    4.3738   -0.6799   -1.8534 C   0  0  0  0  0  0  0  0  0  0  0  0
   -4.7951   -0.5355   -0.0643 H   0  0  0  0  0  0  0  0  0  0  0  0
   -4.8280   -0.8105   -1.8126 H   0  0  0  0  0  0  0  0  0  0  0  0
   -3.6240   -1.6328   -0.8130 H   0  0  0  0  0  0  0  0  0  0  0  0
   -2.5714    0.2582   -2.0156 H   0  0  0  0  0  0  0  0  0  0  0  0
   -3.7627    1.3904   -1.3047 H   0  0  0  0  0  0  0  0  0  0  0  0
   -0.6259    1.3395    1.5622 H   0  0  0  0  0  0  0  0  0  0  0  0
   -0.7610   -0.2280    3.5185 H   0  0  0  0  0  0  0  0  0  0  0  0
   -1.2857   -1.5244    2.4357 H   0  0  0  0  0  0  0  0  0  0  0  0
   -2.3082   -0.1011    2.6720 H   0  0  0  0  0  0  0  0  0  0  0  0
    0.9242   -1.2849    1.1374 H   0  0  0  0  0  0  0  0  0  0  0  0
    3.5884    1.2732   -1.3170 H   0  0  0  0  0  0  0  0  0  0  0  0
    2.5179    0.3250   -2.3693 H   0  0  0  0  0  0  0  0  0  0  0  0
    4.9158   -0.3163   -2.7213 H   0  0  0  0  0  0  0  0  0  0  0  0
    5.0531   -0.7384   -1.0074 H   0  0  0  0  0  0  0  0  0  0  0  0
    3.9919   -1.6752   -2.0631 H   0  0  0  0  0  0  0  0  0  0  0  0
  1  2  1  0  0  0  0
  2  3  1  0  0  0  0
  3  4  1  0  0  0  0
  4  5  2  0  0  0  0
  4  6  1  0  0  0  0
  6  7  1  0  0  0  0
  6  8  1  0  0  0  0
  8  9  1  0  0  0  0
  9 10  3  0  0  0  0
  8 11  1  0  0  0  0
 11 12  2  0  0  0  0
 11 13  1  0  0  0  0
 13 14  1  0  0  0  0
 14 15  1  0  0  0  0
  1 16  1  0  0  0  0
  1 17  1  0  0  0  0
  1 18  1  0  0  0  0
  2 19  1  0  0  0  0
  2 20  1  0  0  0  0
  6 21  1  0  0  0  0
  7 22  1  0  0  0  0
  7 23  1  0  0  0  0
  7 24  1  0  0  0  0
  8 25  1  0  0  0  0
 14 26  1  0  0  0  0
 14 27  1  0  0  0  0
 15 28  1  0  0  0  0
 15 29  1  0  0  0  0
 15 30  1  0  0  0  0
M  END
