 xtb: 6.7.1 (edcfbbe)
          07082618373D

 15 14  0     0  0            999 V2000
    2.3838    0.2485    0.4304 C   0  0  0  0  0  0  0  0  0  0  0  0
    1.1903   -0.5148   -0.1003 C   0  0  0  0  0  0  0  0  0  0  0  0
    1.1471   -1.7206   -0.2033 O   0  0  0  0  0  0  0  0  0  0  0  0
    0.1636    0.2869   -0.4829 N   0  0  0  0  0  0  0  0  0  0  0  0
   -1.1027   -0.2433   -0.9190 C   0  0  0  0  0  0  0  0  0  0  0  0
   -2.1778   -0.1067    0.1519 C   0  0  0  0  0  0  0  0  0  0  0  0
   -2.4794    1.6201    0.5073 Cl  0  0  0  0  0  0  0  0  0  0  0  0
    2.1116    0.7741    1.3436 H   0  0  0  0  0  0  0  0  0  0  0  0
    2.7220    0.9756   -0.3042 H   0  0  0  0  0  0  0  0  0  0  0  0
    3.1883   -0.4483    0.6461 H   0  0  0  0  0  0  0  0  0  0  0  0
    0.1980    1.2748   -0.2853 H   0  0  0  0  0  0  0  0  0  0  0  0
   -1.4196    0.2657   -1.8342 H   0  0  0  0  0  0  0  0  0  0  0  0
   -0.9425   -1.3055   -1.1266 H   0  0  0  0  0  0  0  0  0  0  0  0
   -1.8606   -0.5723    1.0844 H   0  0  0  0  0  0  0  0  0  0  0  0
   -3.1221   -0.5343   -0.1816 H   0  0  0  0  0  0  0  0  0  0  0  0
  1  2  1  0  0  0  0
  2  3  2  0  0  0  0
  2  4  4  0  0  0  0
  4  5  1  0  0  0  0
  5  6  1  0  0  0  0
  6  7  1  0  0  0  0
  1  8  1  0  0  0  0
  1  9  1  0  0  0  0
  1 10  1  0  0  0  0
  4 11  1  0  0  0  0
  5 12  1  0  0  0  0
  5 13  1  0  0  0  0
  6 14  1  0  0  0  0
  6 15  1  0  0  0  0
M  END
