 xtb: 6.7.1 (edcfbbe)
          07092622573D

 36 35  0     0  0            999 V2000
   -6.0309    0.7609    1.6473 C   0  0  0  0  0  0  0  0  0  0  0  0
   -5.0221    0.8540    0.5091 C   0  0  0  0  0  0  0  0  0  0  0  0
   -3.6393    0.3659    0.9338 C   0  0  0  0  0  0  0  0  0  0  0  0
   -2.6226    0.4541   -0.2016 C   0  0  0  0  0  0  0  0  0  0  0  0
   -1.2406   -0.0331    0.2268 C   0  0  0  0  0  0  0  0  0  0  0  0
   -0.2220    0.0556   -0.9070 C   0  0  0  0  0  0  0  0  0  0  0  0
    1.1604   -0.4280   -0.4746 C   0  0  0  0  0  0  0  0  0  0  0  0
    2.1802   -0.3158   -1.6061 C   0  0  0  0  0  0  0  0  0  0  0  0
    3.5469   -0.9059   -1.2562 C   0  0  0  0  0  0  0  0  0  0  0  0
    4.2796   -0.1261   -0.1675 C   0  0  0  0  0  0  0  0  0  0  0  0
    5.6879   -0.6739    0.0661 C   0  0  0  0  0  0  0  0  0  0  0  0
    6.4015    0.0511    1.0402 O   0  0  0  0  0  0  0  0  0  0  0  0
   -7.0079    1.1128    1.3242 H   0  0  0  0  0  0  0  0  0  0  0  0
   -6.1311   -0.2686    1.9846 H   0  0  0  0  0  0  0  0  0  0  0  0
   -5.7098    1.3669    2.4919 H   0  0  0  0  0  0  0  0  0  0  0  0
   -4.9503    1.8906    0.1717 H   0  0  0  0  0  0  0  0  0  0  0  0
   -5.3716    0.2556   -0.3355 H   0  0  0  0  0  0  0  0  0  0  0  0
   -3.2900    0.9653    1.7781 H   0  0  0  0  0  0  0  0  0  0  0  0
   -3.7120   -0.6702    1.2733 H   0  0  0  0  0  0  0  0  0  0  0  0
   -2.5503    1.4900   -0.5418 H   0  0  0  0  0  0  0  0  0  0  0  0
   -2.9711   -0.1457   -1.0458 H   0  0  0  0  0  0  0  0  0  0  0  0
   -0.8935    0.5670    1.0714 H   0  0  0  0  0  0  0  0  0  0  0  0
   -1.3129   -1.0691    0.5666 H   0  0  0  0  0  0  0  0  0  0  0  0
   -0.5683   -0.5454   -1.7512 H   0  0  0  0  0  0  0  0  0  0  0  0
   -0.1508    1.0913   -1.2478 H   0  0  0  0  0  0  0  0  0  0  0  0
    1.0928   -1.4698   -0.1520 H   0  0  0  0  0  0  0  0  0  0  0  0
    1.4889    0.1654    0.3803 H   0  0  0  0  0  0  0  0  0  0  0  0
    1.7896   -0.8416   -2.4808 H   0  0  0  0  0  0  0  0  0  0  0  0
    2.3010    0.7344   -1.8808 H   0  0  0  0  0  0  0  0  0  0  0  0
    4.1661   -0.9124   -2.1564 H   0  0  0  0  0  0  0  0  0  0  0  0
    3.4215   -1.9429   -0.9355 H   0  0  0  0  0  0  0  0  0  0  0  0
    4.3547    0.9253   -0.4531 H   0  0  0  0  0  0  0  0  0  0  0  0
    3.7210   -0.1819    0.7704 H   0  0  0  0  0  0  0  0  0  0  0  0
    5.6298   -1.7370    0.3459 H   0  0  0  0  0  0  0  0  0  0  0  0
    6.2821   -0.5929   -0.8471 H   0  0  0  0  0  0  0  0  0  0  0  0
    5.8930    0.0496    1.8590 H   0  0  0  0  0  0  0  0  0  0  0  0
  1  2  1  0  0  0  0
  2  3  1  0  0  0  0
  3  4  1  0  0  0  0
  4  5  1  0  0  0  0
  5  6  1  0  0  0  0
  6  7  1  0  0  0  0
  7  8  1  0  0  0  0
  8  9  1  0  0  0  0
  9 10  1  0  0  0  0
 10 11  1  0  0  0  0
 11 12  1  0  0  0  0
  1 13  1  0  0  0  0
  1 14  1  0  0  0  0
  1 15  1  0  0  0  0
  2 16  1  0  0  0  0
  2 17  1  0  0  0  0
  3 18  1  0  0  0  0
  3 19  1  0  0  0  0
  4 20  1  0  0  0  0
  4 21  1  0  0  0  0
  5 22  1  0  0  0  0
  5 23  1  0  0  0  0
  6 24  1  0  0  0  0
  6 25  1  0  0  0  0
  7 26  1  0  0  0  0
  7 27  1  0  0  0  0
  8 28  1  0  0  0  0
  8 29  1  0  0  0  0
  9 30  1  0  0  0  0
  9 31  1  0  0  0  0
 10 32  1  0  0  0  0
 10 33  1  0  0  0  0
 11 34  1  0  0  0  0
 11 35  1  0  0  0  0
 12 36  1  0  0  0  0
M  END
