 xtb: 6.7.1 (edcfbbe)
          07082617173D

  7  7  0     0  0            999 V2000
   -0.6177   -0.1478    0.0071 C   0  0  0  0  0  0  0  0  0  0  0  0
    0.8120    0.1885    0.0125 N   0  0  0  0  0  0  0  0  0  0  0  0
    1.5859   -0.6943   -0.2607 O   0  0  0  0  0  0  0  0  0  0  0  0
    1.1085    1.3272    0.2737 O   0  0  0  0  0  0  0  0  0  0  0  0
   -1.0036    0.0266   -0.9976 H   0  0  0  0  0  0  0  0  0  0  0  0
   -0.7421   -1.1987    0.2582 H   0  0  0  0  0  0  0  0  0  0  0  0
   -1.1429    0.4984    0.7068 H   0  0  0  0  0  0  0  0  0  0  0  0
  1  2  1  0  0  0  0
  2  3  4  0  0  0  0
  2  4  4  0  0  0  0
  3  4  1  0  0  0  0
  1  5  1  0  0  0  0
  1  6  1  0  0  0  0
  1  7  1  0  0  0  0
M  END
