 xtb: 6.7.1 (edcfbbe)
          07152615073D

 13 12  0     0  0            999 V2000
   -1.0161    1.3772   -0.0135 O   0  0  0  0  0  0  0  0  0  0  0  0
   -1.1771   -0.0001    0.2772 C   0  0  0  0  0  0  0  0  0  0  0  0
    0.1491   -0.5683    0.7787 C   0  0  0  0  0  0  0  0  0  0  0  0
    1.2469   -0.4894   -0.2857 C   0  0  0  0  0  0  0  0  0  0  0  0
    1.7136    0.8179   -0.4876 O   0  0  0  0  0  0  0  0  0  0  0  0
   -1.8579    1.7437   -0.3006 H   0  0  0  0  0  0  0  0  0  0  0  0
   -1.4921   -0.5412   -0.6273 H   0  0  0  0  0  0  0  0  0  0  0  0
   -1.9486   -0.1366    1.0478 H   0  0  0  0  0  0  0  0  0  0  0  0
   -0.0072   -1.6078    1.0682 H   0  0  0  0  0  0  0  0  0  0  0  0
    0.4697   -0.0014    1.6540 H   0  0  0  0  0  0  0  0  0  0  0  0
    2.1142   -1.0773    0.0277 H   0  0  0  0  0  0  0  0  0  0  0  0
    0.8679   -0.9124   -1.2308 H   0  0  0  0  0  0  0  0  0  0  0  0
    0.9376    1.3958   -0.5116 H   0  0  0  0  0  0  0  0  0  0  0  0
  1  2  1  0  0  0  0
  2  3  1  0  0  0  0
  3  4  1  0  0  0  0
  4  5  1  0  0  0  0
  1  6  1  0  0  0  0
  2  7  1  0  0  0  0
  2  8  1  0  0  0  0
  3  9  1  0  0  0  0
  3 10  1  0  0  0  0
  4 11  1  0  0  0  0
  4 12  1  0  0  0  0
  5 13  1  0  0  0  0
M  END
