 xtb: 6.7.1 (edcfbbe)
          07082611063D

 28 27  0     0  0            999 V2000
    4.3185    0.4433   -0.0053 C   0  0  0  0  0  0  0  0  0  0  0  0
    3.6884   -0.6786    0.8120 C   0  0  0  0  0  0  0  0  0  0  0  0
    2.2542   -0.3749    1.2467 C   0  0  0  0  0  0  0  0  0  0  0  0
    1.2701   -0.3112    0.0805 C   0  0  0  0  0  0  0  0  0  0  0  0
   -0.1673   -0.1229    0.5593 C   0  0  0  0  0  0  0  0  0  0  0  0
   -1.1477   -0.0417   -0.6070 C   0  0  0  0  0  0  0  0  0  0  0  0
   -2.5860    0.1437   -0.1327 C   0  0  0  0  0  0  0  0  0  0  0  0
   -3.5711    0.2272   -1.2798 C   0  0  0  0  0  0  0  0  0  0  0  0
   -5.0084    0.4104   -0.8507 C   0  0  0  0  0  0  0  0  0  0  0  0
   -3.2438    0.1543   -2.4357 O   0  0  0  0  0  0  0  0  0  0  0  0
    4.2728    1.3833    0.5409 H   0  0  0  0  0  0  0  0  0  0  0  0
    5.3622    0.2183   -0.2128 H   0  0  0  0  0  0  0  0  0  0  0  0
    3.8053    0.5705   -0.9547 H   0  0  0  0  0  0  0  0  0  0  0  0
    4.2942   -0.8462    1.7059 H   0  0  0  0  0  0  0  0  0  0  0  0
    3.6991   -1.6020    0.2285 H   0  0  0  0  0  0  0  0  0  0  0  0
    1.9270   -1.1548    1.9394 H   0  0  0  0  0  0  0  0  0  0  0  0
    2.2360    0.5743    1.7878 H   0  0  0  0  0  0  0  0  0  0  0  0
    1.3379   -1.2346   -0.4993 H   0  0  0  0  0  0  0  0  0  0  0  0
    1.5327    0.5164   -0.5799 H   0  0  0  0  0  0  0  0  0  0  0  0
   -0.2319    0.7928    1.1529 H   0  0  0  0  0  0  0  0  0  0  0  0
   -0.4440   -0.9571    1.2093 H   0  0  0  0  0  0  0  0  0  0  0  0
   -0.8792    0.7922   -1.2582 H   0  0  0  0  0  0  0  0  0  0  0  0
   -1.0862   -0.9525   -1.2054 H   0  0  0  0  0  0  0  0  0  0  0  0
   -2.8815   -0.6876    0.5127 H   0  0  0  0  0  0  0  0  0  0  0  0
   -2.6735    1.0574    0.4608 H   0  0  0  0  0  0  0  0  0  0  0  0
   -5.1079    1.3262   -0.2724 H   0  0  0  0  0  0  0  0  0  0  0  0
   -5.6549    0.4611   -1.7226 H   0  0  0  0  0  0  0  0  0  0  0  0
   -5.3152   -0.4210   -0.2201 H   0  0  0  0  0  0  0  0  0  0  0  0
  1  2  1  0  0  0  0
  2  3  1  0  0  0  0
  3  4  1  0  0  0  0
  4  5  1  0  0  0  0
  5  6  1  0  0  0  0
  6  7  1  0  0  0  0
  7  8  1  0  0  0  0
  8  9  1  0  0  0  0
  8 10  2  0  0  0  0
  1 11  1  0  0  0  0
  1 12  1  0  0  0  0
  1 13  1  0  0  0  0
  2 14  1  0  0  0  0
  2 15  1  0  0  0  0
  3 16  1  0  0  0  0
  3 17  1  0  0  0  0
  4 18  1  0  0  0  0
  4 19  1  0  0  0  0
  5 20  1  0  0  0  0
  5 21  1  0  0  0  0
  6 22  1  0  0  0  0
  6 23  1  0  0  0  0
  7 24  1  0  0  0  0
  7 25  1  0  0  0  0
  9 26  1  0  0  0  0
  9 27  1  0  0  0  0
  9 28  1  0  0  0  0
M  END
