 xtb: 6.7.1 (edcfbbe)
          07072621233D

 33 33  0     0  0            999 V2000
   -4.9881    1.3458    0.4269 C   0  0  0  0  0  0  0  0  0  0  0  0
   -4.2766    0.4074   -0.1749 C   0  0  0  0  0  0  0  0  0  0  0  0
   -4.5631   -1.0552   -0.0464 C   0  0  0  0  0  0  0  0  0  0  0  0
   -3.1059    0.7445   -1.0604 C   0  0  0  0  0  0  0  0  0  0  0  0
   -1.9654    0.0354   -0.6172 O   0  0  0  0  0  0  0  0  0  0  0  0
   -0.8290    0.2824   -1.4030 C   0  0  0  0  0  0  0  0  0  0  0  0
    0.3333   -0.5216   -0.8335 C   0  0  0  0  0  0  0  0  0  0  0  0
    1.4613   -0.3035   -1.6488 O   0  0  0  0  0  0  0  0  0  0  0  0
    2.6147   -0.9786   -1.1942 C   0  0  0  0  0  0  0  0  0  0  0  0
    3.1632   -0.4324    0.1025 C   0  0  0  0  0  0  0  0  0  0  0  0
    3.1861    0.9407    0.3151 C   0  0  0  0  0  0  0  0  0  0  0  0
    3.6852    1.4584    1.4961 C   0  0  0  0  0  0  0  0  0  0  0  0
    4.1752    0.6083    2.4738 C   0  0  0  0  0  0  0  0  0  0  0  0
    4.1589   -0.7604    2.2668 C   0  0  0  0  0  0  0  0  0  0  0  0
    3.6498   -1.2791    1.0886 C   0  0  0  0  0  0  0  0  0  0  0  0
   -5.8346    1.1012    1.0459 H   0  0  0  0  0  0  0  0  0  0  0  0
   -4.7596    2.3931    0.3232 H   0  0  0  0  0  0  0  0  0  0  0  0
   -5.3718   -1.2359    0.6558 H   0  0  0  0  0  0  0  0  0  0  0  0
   -4.8351   -1.4704   -1.0167 H   0  0  0  0  0  0  0  0  0  0  0  0
   -3.6645   -1.5661    0.2937 H   0  0  0  0  0  0  0  0  0  0  0  0
   -3.3359    0.4575   -2.1020 H   0  0  0  0  0  0  0  0  0  0  0  0
   -2.9081    1.8270   -1.0450 H   0  0  0  0  0  0  0  0  0  0  0  0
   -0.5728    1.3527   -1.3955 H   0  0  0  0  0  0  0  0  0  0  0  0
   -1.0030   -0.0164   -2.4484 H   0  0  0  0  0  0  0  0  0  0  0  0
    0.0681   -1.5897   -0.8205 H   0  0  0  0  0  0  0  0  0  0  0  0
    0.5248   -0.2053    0.2011 H   0  0  0  0  0  0  0  0  0  0  0  0
    3.3521   -0.8413   -1.9928 H   0  0  0  0  0  0  0  0  0  0  0  0
    2.4091   -2.0553   -1.0904 H   0  0  0  0  0  0  0  0  0  0  0  0
    2.8003    1.5941   -0.4539 H   0  0  0  0  0  0  0  0  0  0  0  0
    3.6943    2.5272    1.6541 H   0  0  0  0  0  0  0  0  0  0  0  0
    4.5672    1.0116    3.3958 H   0  0  0  0  0  0  0  0  0  0  0  0
    4.5379   -1.4274    3.0274 H   0  0  0  0  0  0  0  0  0  0  0  0
    3.6322   -2.3488    0.9327 H   0  0  0  0  0  0  0  0  0  0  0  0
  1  2  2  0  0  0  0
  2  3  1  0  0  0  0
  2  4  1  0  0  0  0
  4  5  1  0  0  0  0
  5  6  1  0  0  0  0
  6  7  1  0  0  0  0
  7  8  1  0  0  0  0
  8  9  1  0  0  0  0
  9 10  1  0  0  0  0
 10 11  4  0  0  0  0
 11 12  4  0  0  0  0
 12 13  4  0  0  0  0
 13 14  4  0  0  0  0
 10 15  4  0  0  0  0
 14 15  4  0  0  0  0
  1 16  1  0  0  0  0
  1 17  1  0  0  0  0
  3 18  1  0  0  0  0
  3 19  1  0  0  0  0
  3 20  1  0  0  0  0
  4 21  1  0  0  0  0
  4 22  1  0  0  0  0
  6 23  1  0  0  0  0
  6 24  1  0  0  0  0
  7 25  1  0  0  0  0
  7 26  1  0  0  0  0
  9 27  1  0  0  0  0
  9 28  1  0  0  0  0
 11 29  1  0  0  0  0
 12 30  1  0  0  0  0
 13 31  1  0  0  0  0
 14 32  1  0  0  0  0
 15 33  1  0  0  0  0
M  END
