 xtb: 6.7.1 (edcfbbe)
          07092616413D

 24 24  0     0  0            999 V2000
    3.9843    0.4501   -0.0720 C   0  0  0  0  0  0  0  0  0  0  0  0
    2.7562   -0.4379    0.0737 C   0  0  0  0  0  0  0  0  0  0  0  0
    1.4691    0.3731   -0.0345 C   0  0  0  0  0  0  0  0  0  0  0  0
    0.3826   -0.5231    0.1111 O   0  0  0  0  0  0  0  0  0  0  0  0
   -0.8825   -0.0528    0.0537 C   0  0  0  0  0  0  0  0  0  0  0  0
   -1.2167    1.2852   -0.1433 C   0  0  0  0  0  0  0  0  0  0  0  0
   -2.5427    1.6785   -0.1885 C   0  0  0  0  0  0  0  0  0  0  0  0
   -3.5662    0.7557   -0.0396 C   0  0  0  0  0  0  0  0  0  0  0  0
   -3.2492   -0.5718    0.1560 C   0  0  0  0  0  0  0  0  0  0  0  0
   -1.9218   -0.9955    0.2057 C   0  0  0  0  0  0  0  0  0  0  0  0
   -1.6280   -2.4144    0.4151 C   0  0  0  0  0  0  0  0  0  0  0  0
   -2.4592   -3.2791    0.5536 O   0  0  0  0  0  0  0  0  0  0  0  0
    4.0029    1.2101    0.7060 H   0  0  0  0  0  0  0  0  0  0  0  0
    4.8898   -0.1449    0.0077 H   0  0  0  0  0  0  0  0  0  0  0  0
    3.9848    0.9486   -1.0388 H   0  0  0  0  0  0  0  0  0  0  0  0
    2.7698   -0.9426    1.0408 H   0  0  0  0  0  0  0  0  0  0  0  0
    2.7517   -1.2040   -0.7030 H   0  0  0  0  0  0  0  0  0  0  0  0
    1.4199    0.8723   -1.0118 H   0  0  0  0  0  0  0  0  0  0  0  0
    1.4381    1.1369    0.7545 H   0  0  0  0  0  0  0  0  0  0  0  0
   -0.4464    2.0306   -0.2630 H   0  0  0  0  0  0  0  0  0  0  0  0
   -2.7748    2.7222   -0.3425 H   0  0  0  0  0  0  0  0  0  0  0  0
   -4.5962    1.0744   -0.0768 H   0  0  0  0  0  0  0  0  0  0  0  0
   -4.0164   -1.3220    0.2763 H   0  0  0  0  0  0  0  0  0  0  0  0
   -0.5492   -2.6496    0.4396 H   0  0  0  0  0  0  0  0  0  0  0  0
  1  2  1  0  0  0  0
  2  3  1  0  0  0  0
  3  4  1  0  0  0  0
  4  5  1  0  0  0  0
  5  6  4  0  0  0  0
  6  7  4  0  0  0  0
  7  8  4  0  0  0  0
  8  9  4  0  0  0  0
  5 10  4  0  0  0  0
  9 10  4  0  0  0  0
 10 11  1  0  0  0  0
 11 12  2  0  0  0  0
  1 13  1  0  0  0  0
  1 14  1  0  0  0  0
  1 15  1  0  0  0  0
  2 16  1  0  0  0  0
  2 17  1  0  0  0  0
  3 18  1  0  0  0  0
  3 19  1  0  0  0  0
  6 20  1  0  0  0  0
  7 21  1  0  0  0  0
  8 22  1  0  0  0  0
  9 23  1  0  0  0  0
 11 24  1  0  0  0  0
M  END
