 xtb: 6.7.1 (edcfbbe)
          07092610143D

 21 21  0     0  0            999 V2000
    3.8437    0.6445   -0.1028 C   0  0  0  0  0  0  0  0  0  0  0  0
    2.7058    0.0663    0.7261 C   0  0  0  0  0  0  0  0  0  0  0  0
    1.3602    0.3175    0.0821 C   0  0  0  0  0  0  0  0  0  0  0  0
    1.1551    1.0504   -0.8446 O   0  0  0  0  0  0  0  0  0  0  0  0
    0.4198   -0.4169    0.7064 O   0  0  0  0  0  0  0  0  0  0  0  0
   -0.9219   -0.3344    0.3491 C   0  0  0  0  0  0  0  0  0  0  0  0
   -1.5525    0.8681    0.0681 C   0  0  0  0  0  0  0  0  0  0  0  0
   -2.9041    0.8675   -0.2323 C   0  0  0  0  0  0  0  0  0  0  0  0
   -3.6222   -0.3152   -0.2449 C   0  0  0  0  0  0  0  0  0  0  0  0
   -2.9866   -1.5110    0.0468 C   0  0  0  0  0  0  0  0  0  0  0  0
   -1.6367   -1.5256    0.3426 C   0  0  0  0  0  0  0  0  0  0  0  0
    4.7924    0.5079    0.4095 H   0  0  0  0  0  0  0  0  0  0  0  0
    3.6817    1.7057   -0.2714 H   0  0  0  0  0  0  0  0  0  0  0  0
    3.8934    0.1540   -1.0714 H   0  0  0  0  0  0  0  0  0  0  0  0
    2.8237   -1.0090    0.8697 H   0  0  0  0  0  0  0  0  0  0  0  0
    2.6803    0.5270    1.7172 H   0  0  0  0  0  0  0  0  0  0  0  0
   -0.9946    1.7905    0.0780 H   0  0  0  0  0  0  0  0  0  0  0  0
   -3.3963    1.8022   -0.4551 H   0  0  0  0  0  0  0  0  0  0  0  0
   -4.6758   -0.3063   -0.4799 H   0  0  0  0  0  0  0  0  0  0  0  0
   -3.5421   -2.4368    0.0412 H   0  0  0  0  0  0  0  0  0  0  0  0
   -1.1235   -2.4466    0.5718 H   0  0  0  0  0  0  0  0  0  0  0  0
  1  2  1  0  0  0  0
  2  3  1  0  0  0  0
  3  4  2  0  0  0  0
  3  5  1  0  0  0  0
  5  6  1  0  0  0  0
  6  7  4  0  0  0  0
  7  8  4  0  0  0  0
  8  9  4  0  0  0  0
  9 10  4  0  0  0  0
  6 11  4  0  0  0  0
 10 11  4  0  0  0  0
  1 12  1  0  0  0  0
  1 13  1  0  0  0  0
  1 14  1  0  0  0  0
  2 15  1  0  0  0  0
  2 16  1  0  0  0  0
  7 17  1  0  0  0  0
  8 18  1  0  0  0  0
  9 19  1  0  0  0  0
 10 20  1  0  0  0  0
 11 21  1  0  0  0  0
M  END
