 xtb: 6.7.1 (edcfbbe)
          07082610583D

 31 30  0     0  0            999 V2000
    4.9569    0.5371    0.5994 C   0  0  0  0  0  0  0  0  0  0  0  0
    3.8542   -0.2505   -0.0973 C   0  0  0  0  0  0  0  0  0  0  0  0
    2.4747    0.3503    0.1618 C   0  0  0  0  0  0  0  0  0  0  0  0
    1.3654   -0.4403   -0.5273 C   0  0  0  0  0  0  0  0  0  0  0  0
   -0.0150    0.1563   -0.2643 C   0  0  0  0  0  0  0  0  0  0  0  0
   -1.1181   -0.6431   -0.9539 C   0  0  0  0  0  0  0  0  0  0  0  0
   -2.5043   -0.0435   -0.7035 C   0  0  0  0  0  0  0  0  0  0  0  0
   -3.5663   -0.7561   -1.5484 C   0  0  0  0  0  0  0  0  0  0  0  0
   -2.9026   -0.2128    0.7564 C   0  0  0  0  0  0  0  0  0  0  0  0
   -3.6013    0.9786    1.3611 C   0  0  0  0  0  0  0  0  0  0  0  0
   -2.6967   -1.2279    1.3705 O   0  0  0  0  0  0  0  0  0  0  0  0
    4.7964    0.5469    1.6754 H   0  0  0  0  0  0  0  0  0  0  0  0
    5.9296    0.0927    0.4016 H   0  0  0  0  0  0  0  0  0  0  0  0
    4.9718    1.5665    0.2472 H   0  0  0  0  0  0  0  0  0  0  0  0
    4.0440   -0.2668   -1.1732 H   0  0  0  0  0  0  0  0  0  0  0  0
    3.8681   -1.2840    0.2560 H   0  0  0  0  0  0  0  0  0  0  0  0
    2.4590    1.3832   -0.1952 H   0  0  0  0  0  0  0  0  0  0  0  0
    2.2872    0.3702    1.2379 H   0  0  0  0  0  0  0  0  0  0  0  0
    1.5514   -0.4602   -1.6041 H   0  0  0  0  0  0  0  0  0  0  0  0
    1.3829   -1.4722   -0.1698 H   0  0  0  0  0  0  0  0  0  0  0  0
   -0.0353    1.1901   -0.6209 H   0  0  0  0  0  0  0  0  0  0  0  0
   -0.2011    0.1713    0.8121 H   0  0  0  0  0  0  0  0  0  0  0  0
   -0.9274   -0.6733   -2.0290 H   0  0  0  0  0  0  0  0  0  0  0  0
   -1.1110   -1.6675   -0.5774 H   0  0  0  0  0  0  0  0  0  0  0  0
   -2.4971    1.0203   -0.9597 H   0  0  0  0  0  0  0  0  0  0  0  0
   -4.5524   -0.3310   -1.3724 H   0  0  0  0  0  0  0  0  0  0  0  0
   -3.5949   -1.8126   -1.2924 H   0  0  0  0  0  0  0  0  0  0  0  0
   -3.3317   -0.6593   -2.6059 H   0  0  0  0  0  0  0  0  0  0  0  0
   -2.8839    1.7913    1.4628 H   0  0  0  0  0  0  0  0  0  0  0  0
   -4.4019    1.3163    0.7075 H   0  0  0  0  0  0  0  0  0  0  0  0
   -4.0007    0.7298    2.3405 H   0  0  0  0  0  0  0  0  0  0  0  0
  1  2  1  0  0  0  0
  2  3  1  0  0  0  0
  3  4  1  0  0  0  0
  4  5  1  0  0  0  0
  5  6  1  0  0  0  0
  6  7  1  0  0  0  0
  7  8  1  0  0  0  0
  7  9  1  0  0  0  0
  9 10  1  0  0  0  0
  9 11  2  0  0  0  0
  1 12  1  0  0  0  0
  1 13  1  0  0  0  0
  1 14  1  0  0  0  0
  2 15  1  0  0  0  0
  2 16  1  0  0  0  0
  3 17  1  0  0  0  0
  3 18  1  0  0  0  0
  4 19  1  0  0  0  0
  4 20  1  0  0  0  0
  5 21  1  0  0  0  0
  5 22  1  0  0  0  0
  6 23  1  0  0  0  0
  6 24  1  0  0  0  0
  7 25  1  0  0  0  0
  8 26  1  0  0  0  0
  8 27  1  0  0  0  0
  8 28  1  0  0  0  0
 10 29  1  0  0  0  0
 10 30  1  0  0  0  0
 10 31  1  0  0  0  0
M  END
