 xtb: 6.7.1 (edcfbbe)
          07082615443D

 28 29  0     0  0            999 V2000
    2.2091   -1.4043    1.0314 C   0  0  0  0  0  0  0  0  0  0  0  0
    1.1825   -0.3021    0.7708 C   0  0  0  0  0  0  0  0  0  0  0  0
    1.7282    0.7011   -0.2686 C   0  0  0  0  0  0  0  0  0  0  0  0
    0.6587    1.3170   -1.1927 C   0  0  0  0  0  0  0  0  0  0  0  0
   -0.5680    0.4171   -1.2926 C   0  0  0  0  0  0  0  0  0  0  0  0
   -0.1047   -1.0464   -1.2419 C   0  0  0  0  0  0  0  0  0  0  0  0
   -0.1408   -0.8966    0.2871 C   0  0  0  0  0  0  0  0  0  0  0  0
   -1.2106    0.2066    0.0989 C   0  0  0  0  0  0  0  0  0  0  0  0
   -1.2600    1.3741    1.0770 C   0  0  0  0  0  0  0  0  0  0  0  0
   -2.6215   -0.3721    0.0017 C   0  0  0  0  0  0  0  0  0  0  0  0
    2.3597   -2.0087    0.1394 H   0  0  0  0  0  0  0  0  0  0  0  0
    1.8710   -2.0580    1.8328 H   0  0  0  0  0  0  0  0  0  0  0  0
    3.1650   -0.9733    1.3217 H   0  0  0  0  0  0  0  0  0  0  0  0
    1.0047    0.2082    1.7222 H   0  0  0  0  0  0  0  0  0  0  0  0
    2.4569    0.1766   -0.8889 H   0  0  0  0  0  0  0  0  0  0  0  0
    2.2736    1.4963    0.2431 H   0  0  0  0  0  0  0  0  0  0  0  0
    1.0879    1.4513   -2.1888 H   0  0  0  0  0  0  0  0  0  0  0  0
    0.3581    2.3050   -0.8410 H   0  0  0  0  0  0  0  0  0  0  0  0
   -1.2276    0.7265   -2.1052 H   0  0  0  0  0  0  0  0  0  0  0  0
   -0.8441   -1.7468   -1.6213 H   0  0  0  0  0  0  0  0  0  0  0  0
    0.8557   -1.2720   -1.6972 H   0  0  0  0  0  0  0  0  0  0  0  0
   -0.4251   -1.7657    0.8829 H   0  0  0  0  0  0  0  0  0  0  0  0
   -1.5893    1.0203    2.0527 H   0  0  0  0  0  0  0  0  0  0  0  0
   -1.9767    2.1142    0.7247 H   0  0  0  0  0  0  0  0  0  0  0  0
   -0.3014    1.8650    1.2007 H   0  0  0  0  0  0  0  0  0  0  0  0
   -2.6724   -1.2158   -0.6795 H   0  0  0  0  0  0  0  0  0  0  0  0
   -2.9551   -0.7077    0.9822 H   0  0  0  0  0  0  0  0  0  0  0  0
   -3.3139    0.3902   -0.3515 H   0  0  0  0  0  0  0  0  0  0  0  0
  1  2  1  0  0  0  0
  2  3  1  0  0  0  0
  3  4  1  0  0  0  0
  4  5  1  0  0  0  0
  5  6  1  0  0  0  0
  2  7  1  0  0  0  0
  6  7  1  0  0  0  0
  5  8  1  0  0  0  0
  7  8  1  0  0  0  0
  8  9  1  0  0  0  0
  8 10  1  0  0  0  0
  1 11  1  0  0  0  0
  1 12  1  0  0  0  0
  1 13  1  0  0  0  0
  2 14  1  0  0  0  0
  3 15  1  0  0  0  0
  3 16  1  0  0  0  0
  4 17  1  0  0  0  0
  4 18  1  0  0  0  0
  5 19  1  0  0  0  0
  6 20  1  0  0  0  0
  6 21  1  0  0  0  0
  7 22  1  0  0  0  0
  9 23  1  0  0  0  0
  9 24  1  0  0  0  0
  9 25  1  0  0  0  0
 10 26  1  0  0  0  0
 10 27  1  0  0  0  0
 10 28  1  0  0  0  0
M  END
