 xtb: 6.7.1 (edcfbbe)
          07072603213D

 39 38  0     0  0            999 V2000
   -2.1835   -3.3228   -0.3166 C   0  0  0  0  0  0  0  0  0  0  0  0
   -1.5573   -1.9560   -0.5592 C   0  0  0  0  0  0  0  0  0  0  0  0
   -2.0442   -0.9299    0.4726 C   0  0  0  0  0  0  0  0  0  0  0  0
   -1.3721    0.3436    0.3347 N   0  0  0  0  0  0  0  0  0  0  0  0
   -1.9766    1.3024   -0.5733 C   0  0  0  0  0  0  0  0  0  0  0  0
   -3.0294    2.1657    0.1249 C   0  0  0  0  0  0  0  0  0  0  0  0
   -3.6637    3.1528   -0.8456 C   0  0  0  0  0  0  0  0  0  0  0  0
   -0.1884    0.6662    0.9012 C   0  0  0  0  0  0  0  0  0  0  0  0
    0.3418    1.7454    0.7028 O   0  0  0  0  0  0  0  0  0  0  0  0
    0.4544   -0.3567    1.8361 C   0  0  0  0  0  0  0  0  0  0  0  0
    1.9672   -0.1622    1.8076 C   0  0  0  0  0  0  0  0  0  0  0  0
    2.5069   -0.5802    0.4572 C   0  0  0  0  0  0  0  0  0  0  0  0
    1.9222   -1.2764   -0.3344 O   0  0  0  0  0  0  0  0  0  0  0  0
    3.7277   -0.0926    0.2522 O   0  0  0  0  0  0  0  0  0  0  0  0
    4.3411   -0.3980   -1.0023 C   0  0  0  0  0  0  0  0  0  0  0  0
    5.6014    0.4354   -1.1347 C   0  0  0  0  0  0  0  0  0  0  0  0
   -1.9107   -3.7013    0.6663 H   0  0  0  0  0  0  0  0  0  0  0  0
   -1.8407   -4.0340   -1.0633 H   0  0  0  0  0  0  0  0  0  0  0  0
   -3.2690   -3.2639   -0.3705 H   0  0  0  0  0  0  0  0  0  0  0  0
   -0.4694   -2.0271   -0.5165 H   0  0  0  0  0  0  0  0  0  0  0  0
   -1.8190   -1.6069   -1.5598 H   0  0  0  0  0  0  0  0  0  0  0  0
   -1.9060   -1.3171    1.4843 H   0  0  0  0  0  0  0  0  0  0  0  0
   -3.1157   -0.7578    0.3365 H   0  0  0  0  0  0  0  0  0  0  0  0
   -1.1784    1.9451   -0.9512 H   0  0  0  0  0  0  0  0  0  0  0  0
   -2.4240    0.7621   -1.4113 H   0  0  0  0  0  0  0  0  0  0  0  0
   -2.5470    2.7065    0.9404 H   0  0  0  0  0  0  0  0  0  0  0  0
   -3.8032    1.5256    0.5563 H   0  0  0  0  0  0  0  0  0  0  0  0
   -2.9056    3.8088   -1.2662 H   0  0  0  0  0  0  0  0  0  0  0  0
   -4.4050    3.7645   -0.3374 H   0  0  0  0  0  0  0  0  0  0  0  0
   -4.1537    2.6264   -1.6624 H   0  0  0  0  0  0  0  0  0  0  0  0
    0.0710   -0.1860    2.8446 H   0  0  0  0  0  0  0  0  0  0  0  0
    0.2278   -1.3746    1.5307 H   0  0  0  0  0  0  0  0  0  0  0  0
    2.4575   -0.7634    2.5758 H   0  0  0  0  0  0  0  0  0  0  0  0
    2.2220    0.8859    1.9668 H   0  0  0  0  0  0  0  0  0  0  0  0
    3.6281   -0.1775   -1.8043 H   0  0  0  0  0  0  0  0  0  0  0  0
    4.5668   -1.4705   -1.0323 H   0  0  0  0  0  0  0  0  0  0  0  0
    6.0857    0.2180   -2.0823 H   0  0  0  0  0  0  0  0  0  0  0  0
    6.2872    0.2082   -0.3230 H   0  0  0  0  0  0  0  0  0  0  0  0
    5.3539    1.4925   -1.0945 H   0  0  0  0  0  0  0  0  0  0  0  0
  1  2  1  0  0  0  0
  2  3  1  0  0  0  0
  3  4  1  0  0  0  0
  4  5  1  0  0  0  0
  5  6  1  0  0  0  0
  6  7  1  0  0  0  0
  4  8  4  0  0  0  0
  8  9  2  0  0  0  0
  8 10  1  0  0  0  0
 10 11  1  0  0  0  0
 11 12  1  0  0  0  0
 12 13  2  0  0  0  0
 12 14  1  0  0  0  0
 14 15  1  0  0  0  0
 15 16  1  0  0  0  0
  1 17  1  0  0  0  0
  1 18  1  0  0  0  0
  1 19  1  0  0  0  0
  2 20  1  0  0  0  0
  2 21  1  0  0  0  0
  3 22  1  0  0  0  0
  3 23  1  0  0  0  0
  5 24  1  0  0  0  0
  5 25  1  0  0  0  0
  6 26  1  0  0  0  0
  6 27  1  0  0  0  0
  7 28  1  0  0  0  0
  7 29  1  0  0  0  0
  7 30  1  0  0  0  0
 10 31  1  0  0  0  0
 10 32  1  0  0  0  0
 11 33  1  0  0  0  0
 11 34  1  0  0  0  0
 15 35  1  0  0  0  0
 15 36  1  0  0  0  0
 16 37  1  0  0  0  0
 16 38  1  0  0  0  0
 16 39  1  0  0  0  0
M  END
