 xtb: 6.7.1 (edcfbbe)
          07092618103D

 26 26  0     0  0            999 V2000
   -3.0288    0.1998   -0.6458 C   0  0  0  0  0  0  0  0  0  0  0  0
   -1.7538    0.0450    0.1915 C   0  0  0  0  0  0  0  0  0  0  0  0
   -2.0934   -0.1019    1.6720 C   0  0  0  0  0  0  0  0  0  0  0  0
   -1.0237   -1.1901   -0.3091 C   0  0  0  0  0  0  0  0  0  0  0  0
   -1.2540   -2.2991    0.0977 O   0  0  0  0  0  0  0  0  0  0  0  0
    0.0334   -0.9169   -1.3661 C   0  0  0  0  0  0  0  0  0  0  0  0
    1.2009   -0.2430   -0.6947 C   0  0  0  0  0  0  0  0  0  0  0  0
    1.5083    1.0870   -0.9479 C   0  0  0  0  0  0  0  0  0  0  0  0
    2.5707    1.6968   -0.3030 C   0  0  0  0  0  0  0  0  0  0  0  0
    3.3316    0.9850    0.6077 C   0  0  0  0  0  0  0  0  0  0  0  0
    3.0279   -0.3409    0.8692 C   0  0  0  0  0  0  0  0  0  0  0  0
    1.9688   -0.9509    0.2226 C   0  0  0  0  0  0  0  0  0  0  0  0
   -3.5855    1.0742   -0.3168 H   0  0  0  0  0  0  0  0  0  0  0  0
   -2.7925    0.3178   -1.7013 H   0  0  0  0  0  0  0  0  0  0  0  0
   -3.6596   -0.6784   -0.5286 H   0  0  0  0  0  0  0  0  0  0  0  0
   -1.1176    0.9225    0.0429 H   0  0  0  0  0  0  0  0  0  0  0  0
   -2.6604   -1.0155    1.8319 H   0  0  0  0  0  0  0  0  0  0  0  0
   -1.1824   -0.1551    2.2641 H   0  0  0  0  0  0  0  0  0  0  0  0
   -2.6834    0.7453    2.0134 H   0  0  0  0  0  0  0  0  0  0  0  0
   -0.3793   -0.2721   -2.1426 H   0  0  0  0  0  0  0  0  0  0  0  0
    0.3452   -1.8666   -1.8048 H   0  0  0  0  0  0  0  0  0  0  0  0
    0.9200    1.6491   -1.6602 H   0  0  0  0  0  0  0  0  0  0  0  0
    2.8032    2.7306   -0.5128 H   0  0  0  0  0  0  0  0  0  0  0  0
    4.1591    1.4617    1.1120 H   0  0  0  0  0  0  0  0  0  0  0  0
    3.6177   -0.9006    1.5801 H   0  0  0  0  0  0  0  0  0  0  0  0
    1.7275   -1.9835    0.4286 H   0  0  0  0  0  0  0  0  0  0  0  0
  1  2  1  0  0  0  0
  2  3  1  0  0  0  0
  2  4  1  0  0  0  0
  4  5  2  0  0  0  0
  4  6  1  0  0  0  0
  6  7  1  0  0  0  0
  7  8  4  0  0  0  0
  8  9  4  0  0  0  0
  9 10  4  0  0  0  0
 10 11  4  0  0  0  0
  7 12  4  0  0  0  0
 11 12  4  0  0  0  0
  1 13  1  0  0  0  0
  1 14  1  0  0  0  0
  1 15  1  0  0  0  0
  2 16  1  0  0  0  0
  3 17  1  0  0  0  0
  3 18  1  0  0  0  0
  3 19  1  0  0  0  0
  6 20  1  0  0  0  0
  6 21  1  0  0  0  0
  8 22  1  0  0  0  0
  9 23  1  0  0  0  0
 10 24  1  0  0  0  0
 11 25  1  0  0  0  0
 12 26  1  0  0  0  0
M  END
