 xtb: 6.7.1 (edcfbbe)
          07092614553D

 24 24  0     0  0            999 V2000
    3.3193    1.1074    0.3252 C   0  0  0  0  0  0  0  0  0  0  0  0
    3.3618   -0.3140   -0.2215 C   0  0  0  0  0  0  0  0  0  0  0  0
    2.1476   -1.1260    0.2301 C   0  0  0  0  0  0  0  0  0  0  0  0
    0.8784   -0.6206   -0.4192 C   0  0  0  0  0  0  0  0  0  0  0  0
    0.7804   -0.2581   -1.5590 O   0  0  0  0  0  0  0  0  0  0  0  0
   -0.1382   -0.6706    0.4601 O   0  0  0  0  0  0  0  0  0  0  0  0
   -1.4202   -0.2635    0.1045 C   0  0  0  0  0  0  0  0  0  0  0  0
   -2.4728   -1.0493    0.5555 C   0  0  0  0  0  0  0  0  0  0  0  0
   -3.7734   -0.6734    0.2773 C   0  0  0  0  0  0  0  0  0  0  0  0
   -4.0245    0.4785   -0.4499 C   0  0  0  0  0  0  0  0  0  0  0  0
   -2.9703    1.2585   -0.8914 C   0  0  0  0  0  0  0  0  0  0  0  0
   -1.6629    0.8968   -0.6147 C   0  0  0  0  0  0  0  0  0  0  0  0
    4.1977    1.6633    0.0068 H   0  0  0  0  0  0  0  0  0  0  0  0
    3.2919    1.1009    1.4131 H   0  0  0  0  0  0  0  0  0  0  0  0
    2.4362    1.6270   -0.0392 H   0  0  0  0  0  0  0  0  0  0  0  0
    3.3743   -0.2850   -1.3122 H   0  0  0  0  0  0  0  0  0  0  0  0
    4.2713   -0.8119    0.1195 H   0  0  0  0  0  0  0  0  0  0  0  0
    2.0295   -1.0954    1.3136 H   0  0  0  0  0  0  0  0  0  0  0  0
    2.2675   -2.1689   -0.0749 H   0  0  0  0  0  0  0  0  0  0  0  0
   -2.2565   -1.9436    1.1192 H   0  0  0  0  0  0  0  0  0  0  0  0
   -4.5922   -1.2843    0.6267 H   0  0  0  0  0  0  0  0  0  0  0  0
   -5.0410    0.7677   -0.6704 H   0  0  0  0  0  0  0  0  0  0  0  0
   -3.1619    2.1594   -1.4547 H   0  0  0  0  0  0  0  0  0  0  0  0
   -0.8421    1.5050   -0.9590 H   0  0  0  0  0  0  0  0  0  0  0  0
  1  2  1  0  0  0  0
  2  3  1  0  0  0  0
  3  4  1  0  0  0  0
  4  5  2  0  0  0  0
  4  6  1  0  0  0  0
  6  7  1  0  0  0  0
  7  8  4  0  0  0  0
  8  9  4  0  0  0  0
  9 10  4  0  0  0  0
 10 11  4  0  0  0  0
  7 12  4  0  0  0  0
 11 12  4  0  0  0  0
  1 13  1  0  0  0  0
  1 14  1  0  0  0  0
  1 15  1  0  0  0  0
  2 16  1  0  0  0  0
  2 17  1  0  0  0  0
  3 18  1  0  0  0  0
  3 19  1  0  0  0  0
  8 20  1  0  0  0  0
  9 21  1  0  0  0  0
 10 22  1  0  0  0  0
 11 23  1  0  0  0  0
 12 24  1  0  0  0  0
M  END
