 xtb: 6.7.1 (edcfbbe)
          07072608513D

 28 28  0     0  0            999 V2000
   -5.3254    0.5971   -0.2524 C   0  0  0  0  0  0  0  0  0  0  0  0
   -4.1959    0.5640   -1.0929 O   0  0  0  0  0  0  0  0  0  0  0  0
   -2.9687    0.4192   -0.5347 C   0  0  0  0  0  0  0  0  0  0  0  0
   -2.7212    0.3004    0.8313 C   0  0  0  0  0  0  0  0  0  0  0  0
   -1.4242    0.1555    1.2822 C   0  0  0  0  0  0  0  0  0  0  0  0
   -0.3549    0.1259    0.3928 C   0  0  0  0  0  0  0  0  0  0  0  0
    1.0114   -0.0346    0.9359 C   0  0  0  0  0  0  0  0  0  0  0  0
    1.2630   -0.1335    2.1149 O   0  0  0  0  0  0  0  0  0  0  0  0
    1.9431   -0.0513   -0.0249 O   0  0  0  0  0  0  0  0  0  0  0  0
    3.3095   -0.2028    0.3861 C   0  0  0  0  0  0  0  0  0  0  0  0
    3.6273   -1.6813    0.5862 C   0  0  0  0  0  0  0  0  0  0  0  0
    4.1731    0.4301   -0.6955 C   0  0  0  0  0  0  0  0  0  0  0  0
   -0.6050    0.2461   -0.9747 C   0  0  0  0  0  0  0  0  0  0  0  0
   -1.8942    0.3909   -1.4306 C   0  0  0  0  0  0  0  0  0  0  0  0
   -5.2851    1.4426    0.4413 H   0  0  0  0  0  0  0  0  0  0  0  0
   -6.1812    0.7158   -0.9150 H   0  0  0  0  0  0  0  0  0  0  0  0
   -5.4323   -0.3340    0.3129 H   0  0  0  0  0  0  0  0  0  0  0  0
   -3.5282    0.3195    1.5464 H   0  0  0  0  0  0  0  0  0  0  0  0
   -1.2187    0.0625    2.3380 H   0  0  0  0  0  0  0  0  0  0  0  0
    3.4345    0.3274    1.3397 H   0  0  0  0  0  0  0  0  0  0  0  0
    4.6666   -1.7991    0.8795 H   0  0  0  0  0  0  0  0  0  0  0  0
    3.4521   -2.2286   -0.3374 H   0  0  0  0  0  0  0  0  0  0  0  0
    2.9932   -2.0933    1.3674 H   0  0  0  0  0  0  0  0  0  0  0  0
    4.0300   -0.0941   -1.6370 H   0  0  0  0  0  0  0  0  0  0  0  0
    5.2199    0.3725   -0.4116 H   0  0  0  0  0  0  0  0  0  0  0  0
    3.9001    1.4731   -0.8330 H   0  0  0  0  0  0  0  0  0  0  0  0
    0.2195    0.2248   -1.6694 H   0  0  0  0  0  0  0  0  0  0  0  0
   -2.1083    0.4853   -2.4835 H   0  0  0  0  0  0  0  0  0  0  0  0
  1  2  1  0  0  0  0
  2  3  1  0  0  0  0
  3  4  4  0  0  0  0
  4  5  4  0  0  0  0
  5  6  4  0  0  0  0
  6  7  1  0  0  0  0
  7  8  2  0  0  0  0
  7  9  1  0  0  0  0
  9 10  1  0  0  0  0
 10 11  1  0  0  0  0
 10 12  1  0  0  0  0
  6 13  4  0  0  0  0
  3 14  4  0  0  0  0
 13 14  4  0  0  0  0
  1 15  1  0  0  0  0
  1 16  1  0  0  0  0
  1 17  1  0  0  0  0
  4 18  1  0  0  0  0
  5 19  1  0  0  0  0
 10 20  1  0  0  0  0
 11 21  1  0  0  0  0
 11 22  1  0  0  0  0
 11 23  1  0  0  0  0
 12 24  1  0  0  0  0
 12 25  1  0  0  0  0
 12 26  1  0  0  0  0
 13 27  1  0  0  0  0
 14 28  1  0  0  0  0
M  END
