 xtb: 6.7.1 (edcfbbe)
          07082611553D

 28 28  0     0  0            999 V2000
    4.2499    1.3915   -0.5211 C   0  0  0  0  0  0  0  0  0  0  0  0
    2.7587    1.0817   -0.5170 C   0  0  0  0  0  0  0  0  0  0  0  0
    2.4345   -0.1346    0.3591 C   0  0  0  0  0  0  0  0  0  0  0  0
    0.9613   -0.4199    0.3443 C   0  0  0  0  0  0  0  0  0  0  0  0
    0.1079    0.2039    1.2444 C   0  0  0  0  0  0  0  0  0  0  0  0
   -1.2554   -0.0286    1.2069 C   0  0  0  0  0  0  0  0  0  0  0  0
   -1.8029   -0.8924    0.2658 C   0  0  0  0  0  0  0  0  0  0  0  0
   -3.2885   -1.0949    0.1801 C   0  0  0  0  0  0  0  0  0  0  0  0
   -3.9009   -0.0928   -0.8138 C   0  0  0  0  0  0  0  0  0  0  0  0
   -3.7778    1.2394   -0.3864 O   0  0  0  0  0  0  0  0  0  0  0  0
   -0.9496   -1.5122   -0.6392 C   0  0  0  0  0  0  0  0  0  0  0  0
    0.4121   -1.2803   -0.5985 C   0  0  0  0  0  0  0  0  0  0  0  0
    4.8149    0.5457   -0.9073 H   0  0  0  0  0  0  0  0  0  0  0  0
    4.4582    2.2572   -1.1455 H   0  0  0  0  0  0  0  0  0  0  0  0
    4.5990    1.6036    0.4873 H   0  0  0  0  0  0  0  0  0  0  0  0
    2.2048    1.9469   -0.1456 H   0  0  0  0  0  0  0  0  0  0  0  0
    2.4209    0.8865   -1.5374 H   0  0  0  0  0  0  0  0  0  0  0  0
    2.7651    0.0643    1.3808 H   0  0  0  0  0  0  0  0  0  0  0  0
    2.9850   -1.0003   -0.0153 H   0  0  0  0  0  0  0  0  0  0  0  0
    0.5147    0.8754    1.9873 H   0  0  0  0  0  0  0  0  0  0  0  0
   -1.9010    0.4578    1.9253 H   0  0  0  0  0  0  0  0  0  0  0  0
   -3.5169   -2.1049   -0.1628 H   0  0  0  0  0  0  0  0  0  0  0  0
   -3.7491   -0.9412    1.1574 H   0  0  0  0  0  0  0  0  0  0  0  0
   -3.4277   -0.2250   -1.7990 H   0  0  0  0  0  0  0  0  0  0  0  0
   -4.9737   -0.2721   -0.9155 H   0  0  0  0  0  0  0  0  0  0  0  0
   -2.8462    1.4100   -0.1982 H   0  0  0  0  0  0  0  0  0  0  0  0
   -1.3579   -2.1871   -1.3782 H   0  0  0  0  0  0  0  0  0  0  0  0
    1.0606   -1.7774   -1.3061 H   0  0  0  0  0  0  0  0  0  0  0  0
  1  2  1  0  0  0  0
  2  3  1  0  0  0  0
  3  4  1  0  0  0  0
  4  5  4  0  0  0  0
  5  6  4  0  0  0  0
  6  7  4  0  0  0  0
  7  8  1  0  0  0  0
  8  9  1  0  0  0  0
  9 10  1  0  0  0  0
  7 11  4  0  0  0  0
  4 12  4  0  0  0  0
 11 12  4  0  0  0  0
  1 13  1  0  0  0  0
  1 14  1  0  0  0  0
  1 15  1  0  0  0  0
  2 16  1  0  0  0  0
  2 17  1  0  0  0  0
  3 18  1  0  0  0  0
  3 19  1  0  0  0  0
  5 20  1  0  0  0  0
  6 21  1  0  0  0  0
  8 22  1  0  0  0  0
  8 23  1  0  0  0  0
  9 24  1  0  0  0  0
  9 25  1  0  0  0  0
 10 26  1  0  0  0  0
 11 27  1  0  0  0  0
 12 28  1  0  0  0  0
M  END
