 xtb: 6.7.1 (edcfbbe)
          07082622493D

 20 20  0     0  0            999 V2000
    2.5291    0.2447    0.4192 C   0  0  0  0  0  0  0  0  0  0  0  0
    1.5210   -0.7439   -0.1290 C   0  0  0  0  0  0  0  0  0  0  0  0
    1.7389   -1.9396   -0.1500 O   0  0  0  0  0  0  0  0  0  0  0  0
    0.3667   -0.2279   -0.6197 N   0  0  0  0  0  0  0  0  0  0  0  0
   -0.0790    1.1445   -0.5599 C   0  0  0  0  0  0  0  0  0  0  0  0
   -1.3480    1.2193    0.3030 C   0  0  0  0  0  0  0  0  0  0  0  0
   -2.3553    0.3744   -0.1972 O   0  0  0  0  0  0  0  0  0  0  0  0
   -1.9192   -0.9680   -0.2412 C   0  0  0  0  0  0  0  0  0  0  0  0
   -0.6694   -1.1155   -1.1125 C   0  0  0  0  0  0  0  0  0  0  0  0
    2.8024    0.9787   -0.3354 H   0  0  0  0  0  0  0  0  0  0  0  0
    2.1341    0.7558    1.2946 H   0  0  0  0  0  0  0  0  0  0  0  0
    3.4160   -0.3120    0.7094 H   0  0  0  0  0  0  0  0  0  0  0  0
   -0.3235    1.4771   -1.5768 H   0  0  0  0  0  0  0  0  0  0  0  0
    0.6890    1.7951   -0.1489 H   0  0  0  0  0  0  0  0  0  0  0  0
   -1.7621    2.2288    0.2934 H   0  0  0  0  0  0  0  0  0  0  0  0
   -1.0989    0.9364    1.3382 H   0  0  0  0  0  0  0  0  0  0  0  0
   -2.7490   -1.5438   -0.6528 H   0  0  0  0  0  0  0  0  0  0  0  0
   -1.6979   -1.3229    0.7768 H   0  0  0  0  0  0  0  0  0  0  0  0
   -0.2871   -2.1361   -1.0747 H   0  0  0  0  0  0  0  0  0  0  0  0
   -0.9077   -0.8450   -2.1474 H   0  0  0  0  0  0  0  0  0  0  0  0
  1  2  1  0  0  0  0
  2  3  2  0  0  0  0
  2  4  4  0  0  0  0
  4  5  1  0  0  0  0
  5  6  1  0  0  0  0
  6  7  1  0  0  0  0
  7  8  1  0  0  0  0
  4  9  1  0  0  0  0
  8  9  1  0  0  0  0
  1 10  1  0  0  0  0
  1 11  1  0  0  0  0
  1 12  1  0  0  0  0
  5 13  1  0  0  0  0
  5 14  1  0  0  0  0
  6 15  1  0  0  0  0
  6 16  1  0  0  0  0
  8 17  1  0  0  0  0
  8 18  1  0  0  0  0
  9 19  1  0  0  0  0
  9 20  1  0  0  0  0
M  END
