 xtb: 6.7.1 (edcfbbe)
          07062620433D

 53 53  0     0  0            999 V2000
    8.0695   -0.6582    1.6625 C   0  0  0  0  0  0  0  0  0  0  0  0
    6.9611    0.0075    0.8992 C   0  0  0  0  0  0  0  0  0  0  0  0
    7.3175    1.3713    0.3870 C   0  0  0  0  0  0  0  0  0  0  0  0
    5.7900   -0.5931    0.7233 C   0  0  0  0  0  0  0  0  0  0  0  0
    4.5860   -0.0518    0.0165 C   0  0  0  0  0  0  0  0  0  0  0  0
    3.5997    0.5653    1.0269 C   0  0  0  0  0  0  0  0  0  0  0  0
    2.3884    1.1136    0.3323 C   0  0  0  0  0  0  0  0  0  0  0  0
    2.5660    2.3928   -0.4330 C   0  0  0  0  0  0  0  0  0  0  0  0
    1.2217    0.4802    0.3653 C   0  0  0  0  0  0  0  0  0  0  0  0
   -0.0129    0.9611   -0.3268 C   0  0  0  0  0  0  0  0  0  0  0  0
   -1.0310   -0.0241   -0.1886 O   0  0  0  0  0  0  0  0  0  0  0  0
   -2.2787    0.3625   -0.4868 C   0  0  0  0  0  0  0  0  0  0  0  0
   -2.5398    1.4885   -0.8523 O   0  0  0  0  0  0  0  0  0  0  0  0
   -3.2037   -0.7545   -0.3083 C   0  0  0  0  0  0  0  0  0  0  0  0
   -2.8226   -2.0439    0.0573 C   0  0  0  0  0  0  0  0  0  0  0  0
   -4.0057   -2.7807    0.0962 C   0  0  0  0  0  0  0  0  0  0  0  0
   -4.1998   -4.2178    0.4249 C   0  0  0  0  0  0  0  0  0  0  0  0
   -5.0280   -1.9968   -0.2208 N   0  0  0  0  0  0  0  0  0  0  0  0
   -4.5592   -0.7879   -0.4646 N   0  0  0  0  0  0  0  0  0  0  0  0
   -5.5035    0.2661   -0.8337 C   0  0  0  0  0  0  0  0  0  0  0  0
   -6.9089   -0.3359   -0.8182 C   0  0  0  0  0  0  0  0  0  0  0  0
   -5.4227    1.4013    0.1893 C   0  0  0  0  0  0  0  0  0  0  0  0
   -5.1767    0.7674   -2.2422 C   0  0  0  0  0  0  0  0  0  0  0  0
    8.9393   -0.7982    1.0208 H   0  0  0  0  0  0  0  0  0  0  0  0
    8.3767   -0.0343    2.5015 H   0  0  0  0  0  0  0  0  0  0  0  0
    7.7608   -1.6275    2.0442 H   0  0  0  0  0  0  0  0  0  0  0  0
    7.4653    2.0524    1.2256 H   0  0  0  0  0  0  0  0  0  0  0  0
    8.2532    1.3280   -0.1697 H   0  0  0  0  0  0  0  0  0  0  0  0
    6.5496    1.7858   -0.2577 H   0  0  0  0  0  0  0  0  0  0  0  0
    5.6449   -1.5724    1.1626 H   0  0  0  0  0  0  0  0  0  0  0  0
    4.0791   -0.8635   -0.5099 H   0  0  0  0  0  0  0  0  0  0  0  0
    4.8653    0.7003   -0.7210 H   0  0  0  0  0  0  0  0  0  0  0  0
    3.3059   -0.2006    1.7461 H   0  0  0  0  0  0  0  0  0  0  0  0
    4.1099    1.3645    1.5694 H   0  0  0  0  0  0  0  0  0  0  0  0
    1.8250    3.1285   -0.1235 H   0  0  0  0  0  0  0  0  0  0  0  0
    3.5560    2.8098   -0.2724 H   0  0  0  0  0  0  0  0  0  0  0  0
    2.4292    2.2232   -1.5009 H   0  0  0  0  0  0  0  0  0  0  0  0
    1.0991   -0.4396    0.9164 H   0  0  0  0  0  0  0  0  0  0  0  0
    0.1690    1.1378   -1.3964 H   0  0  0  0  0  0  0  0  0  0  0  0
   -0.3716    1.9093    0.0998 H   0  0  0  0  0  0  0  0  0  0  0  0
   -1.8264   -2.3781    0.2591 H   0  0  0  0  0  0  0  0  0  0  0  0
   -3.8184   -4.4347    1.4213 H   0  0  0  0  0  0  0  0  0  0  0  0
   -5.2583   -4.4573    0.3860 H   0  0  0  0  0  0  0  0  0  0  0  0
   -3.6650   -4.8452   -0.2866 H   0  0  0  0  0  0  0  0  0  0  0  0
   -7.6314    0.4318   -1.0815 H   0  0  0  0  0  0  0  0  0  0  0  0
   -6.9824   -1.1521   -1.5307 H   0  0  0  0  0  0  0  0  0  0  0  0
   -7.1468   -0.7244    0.1676 H   0  0  0  0  0  0  0  0  0  0  0  0
   -6.1872    2.1421   -0.0278 H   0  0  0  0  0  0  0  0  0  0  0  0
   -4.4535    1.8874    0.1470 H   0  0  0  0  0  0  0  0  0  0  0  0
   -5.5864    1.0156    1.1935 H   0  0  0  0  0  0  0  0  0  0  0  0
   -5.1876   -0.0606   -2.9479 H   0  0  0  0  0  0  0  0  0  0  0  0
   -4.2005    1.2413   -2.2625 H   0  0  0  0  0  0  0  0  0  0  0  0
   -5.9196    1.4979   -2.5503 H   0  0  0  0  0  0  0  0  0  0  0  0
  1  2  1  0  0  0  0
  2  3  1  0  0  0  0
  2  4  2  0  0  0  0
  4  5  1  0  0  0  0
  5  6  1  0  0  0  0
  6  7  1  0  0  0  0
  7  8  1  0  0  0  0
  7  9  2  0  0  0  0
  9 10  1  0  0  0  0
 10 11  1  0  0  0  0
 11 12  1  0  0  0  0
 12 13  2  0  0  0  0
 12 14  1  0  0  0  0
 14 15  4  0  0  0  0
 15 16  4  0  0  0  0
 16 17  1  0  0  0  0
 16 18  4  0  0  0  0
 14 19  4  0  0  0  0
 18 19  4  0  0  0  0
 19 20  1  0  0  0  0
 20 21  1  0  0  0  0
 20 22  1  0  0  0  0
 20 23  1  0  0  0  0
  1 24  1  0  0  0  0
  1 25  1  0  0  0  0
  1 26  1  0  0  0  0
  3 27  1  0  0  0  0
  3 28  1  0  0  0  0
  3 29  1  0  0  0  0
  4 30  1  0  0  0  0
  5 31  1  0  0  0  0
  5 32  1  0  0  0  0
  6 33  1  0  0  0  0
  6 34  1  0  0  0  0
  8 35  1  0  0  0  0
  8 36  1  0  0  0  0
  8 37  1  0  0  0  0
  9 38  1  0  0  0  0
 10 39  1  0  0  0  0
 10 40  1  0  0  0  0
 15 41  1  0  0  0  0
 17 42  1  0  0  0  0
 17 43  1  0  0  0  0
 17 44  1  0  0  0  0
 21 45  1  0  0  0  0
 21 46  1  0  0  0  0
 21 47  1  0  0  0  0
 22 48  1  0  0  0  0
 22 49  1  0  0  0  0
 22 50  1  0  0  0  0
 23 51  1  0  0  0  0
 23 52  1  0  0  0  0
 23 53  1  0  0  0  0
M  END
