 xtb: 6.7.1 (edcfbbe)
          07082606533D

 26 27  0     0  0            999 V2000
   -0.6498    2.4912    0.1874 C   0  0  0  0  0  0  0  0  0  0  0  0
   -0.6806    1.1160   -0.4867 C   0  0  0  0  0  0  0  0  0  0  0  0
    0.5567    0.2895   -0.1994 C   0  0  0  0  0  0  0  0  0  0  0  0
    1.8052    0.9045   -0.1547 C   0  0  0  0  0  0  0  0  0  0  0  0
    2.9581    0.1844    0.0906 C   0  0  0  0  0  0  0  0  0  0  0  0
    2.8850   -1.1825    0.2954 C   0  0  0  0  0  0  0  0  0  0  0  0
    1.6561   -1.8078    0.2368 C   0  0  0  0  0  0  0  0  0  0  0  0
    0.4897   -1.0923   -0.0151 C   0  0  0  0  0  0  0  0  0  0  0  0
   -0.8101   -1.8515   -0.0599 C   0  0  0  0  0  0  0  0  0  0  0  0
   -1.9439   -1.0391   -0.6750 C   0  0  0  0  0  0  0  0  0  0  0  0
   -1.9624    0.3691   -0.0725 C   0  0  0  0  0  0  0  0  0  0  0  0
   -2.1387    0.3450    1.3247 O   0  0  0  0  0  0  0  0  0  0  0  0
   -0.4180    2.3945    1.2453 H   0  0  0  0  0  0  0  0  0  0  0  0
    0.0827    3.1470   -0.2741 H   0  0  0  0  0  0  0  0  0  0  0  0
   -1.6271    2.9598    0.0962 H   0  0  0  0  0  0  0  0  0  0  0  0
   -0.7348    1.2679   -1.5729 H   0  0  0  0  0  0  0  0  0  0  0  0
    1.8822    1.9674   -0.3208 H   0  0  0  0  0  0  0  0  0  0  0  0
    3.9123    0.6895    0.1196 H   0  0  0  0  0  0  0  0  0  0  0  0
    3.7788   -1.7560    0.4912 H   0  0  0  0  0  0  0  0  0  0  0  0
    1.5886   -2.8768    0.3846 H   0  0  0  0  0  0  0  0  0  0  0  0
   -0.6681   -2.7764   -0.6242 H   0  0  0  0  0  0  0  0  0  0  0  0
   -1.0849   -2.1458    0.9595 H   0  0  0  0  0  0  0  0  0  0  0  0
   -1.8054   -0.9553   -1.7541 H   0  0  0  0  0  0  0  0  0  0  0  0
   -2.8984   -1.5336   -0.4883 H   0  0  0  0  0  0  0  0  0  0  0  0
   -2.8334    0.9175   -0.4497 H   0  0  0  0  0  0  0  0  0  0  0  0
   -1.3398   -0.0263    1.7164 H   0  0  0  0  0  0  0  0  0  0  0  0
  1  2  1  0  0  0  0
  2  3  1  0  0  0  0
  3  4  4  0  0  0  0
  4  5  4  0  0  0  0
  5  6  4  0  0  0  0
  6  7  4  0  0  0  0
  3  8  4  0  0  0  0
  7  8  4  0  0  0  0
  8  9  1  0  0  0  0
  9 10  1  0  0  0  0
  2 11  1  0  0  0  0
 10 11  1  0  0  0  0
 11 12  1  0  0  0  0
  1 13  1  0  0  0  0
  1 14  1  0  0  0  0
  1 15  1  0  0  0  0
  2 16  1  0  0  0  0
  4 17  1  0  0  0  0
  5 18  1  0  0  0  0
  6 19  1  0  0  0  0
  7 20  1  0  0  0  0
  9 21  1  0  0  0  0
  9 22  1  0  0  0  0
 10 23  1  0  0  0  0
 10 24  1  0  0  0  0
 11 25  1  0  0  0  0
 12 26  1  0  0  0  0
M  END
