 xtb: 6.7.1 (edcfbbe)
          07082618273D

 16 15  0     0  0            999 V2000
    1.8934    1.5504    0.7134 C   0  0  0  0  0  0  0  0  0  0  0  0
    0.8370    0.7419   -0.0066 C   0  0  0  0  0  0  0  0  0  0  0  0
    0.3388    1.0864   -1.0608 O   0  0  0  0  0  0  0  0  0  0  0  0
    0.4947   -0.3991    0.6299 N   0  0  0  0  0  0  0  0  0  0  0  0
   -0.4466   -1.3704    0.0958 C   0  0  0  0  0  0  0  0  0  0  0  0
   -1.8686   -0.8013   -0.0696 C   0  0  0  0  0  0  0  0  0  0  0  0
   -2.0780   -0.2200   -1.3206 O   0  0  0  0  0  0  0  0  0  0  0  0
    1.5411    1.8316    1.7034 H   0  0  0  0  0  0  0  0  0  0  0  0
    2.1063    2.4482    0.1409 H   0  0  0  0  0  0  0  0  0  0  0  0
    2.8058    0.9671    0.8179 H   0  0  0  0  0  0  0  0  0  0  0  0
    0.9307   -0.6080    1.5125 H   0  0  0  0  0  0  0  0  0  0  0  0
   -0.1029   -1.7038   -0.8898 H   0  0  0  0  0  0  0  0  0  0  0  0
   -0.4595   -2.2225    0.7748 H   0  0  0  0  0  0  0  0  0  0  0  0
   -2.5962   -1.6136    0.0125 H   0  0  0  0  0  0  0  0  0  0  0  0
   -2.0598   -0.0802    0.7419 H   0  0  0  0  0  0  0  0  0  0  0  0
   -1.3361    0.3934   -1.4872 H   0  0  0  0  0  0  0  0  0  0  0  0
  1  2  1  0  0  0  0
  2  3  2  0  0  0  0
  2  4  4  0  0  0  0
  4  5  1  0  0  0  0
  5  6  1  0  0  0  0
  6  7  1  0  0  0  0
  1  8  1  0  0  0  0
  1  9  1  0  0  0  0
  1 10  1  0  0  0  0
  4 11  1  0  0  0  0
  5 12  1  0  0  0  0
  5 13  1  0  0  0  0
  6 14  1  0  0  0  0
  6 15  1  0  0  0  0
  7 16  1  0  0  0  0
M  END
