 xtb: 6.7.1 (edcfbbe)
          07092601143D

 20 19  0     0  0            999 V2000
    3.2768   -1.0165   -0.5474 C   0  0  0  0  0  0  0  0  0  0  0  0
    2.6050   -0.2771    0.4641 O   0  0  0  0  0  0  0  0  0  0  0  0
    1.4623    0.3128    0.1034 C   0  0  0  0  0  0  0  0  0  0  0  0
    1.0053    0.2652   -1.0071 O   0  0  0  0  0  0  0  0  0  0  0  0
    0.8481    1.0592    1.2702 C   0  0  0  0  0  0  0  0  0  0  0  0
   -0.6117    1.3845    0.9816 C   0  0  0  0  0  0  0  0  0  0  0  0
   -1.4214    0.1096    0.8595 C   0  0  0  0  0  0  0  0  0  0  0  0
   -1.0738   -0.9726    1.2495 O   0  0  0  0  0  0  0  0  0  0  0  0
   -2.5982    0.3473    0.2741 O   0  0  0  0  0  0  0  0  0  0  0  0
   -3.4502   -0.7769    0.0973 C   0  0  0  0  0  0  0  0  0  0  0  0
    3.5132   -0.3710   -1.3958 H   0  0  0  0  0  0  0  0  0  0  0  0
    2.6467   -1.8376   -0.8944 H   0  0  0  0  0  0  0  0  0  0  0  0
    4.1860   -1.3987   -0.0912 H   0  0  0  0  0  0  0  0  0  0  0  0
    1.4235    1.9723    1.4327 H   0  0  0  0  0  0  0  0  0  0  0  0
    0.9381    0.4320    2.1574 H   0  0  0  0  0  0  0  0  0  0  0  0
   -1.0405    1.9861    1.7850 H   0  0  0  0  0  0  0  0  0  0  0  0
   -0.7089    1.9372    0.0468 H   0  0  0  0  0  0  0  0  0  0  0  0
   -3.6693   -1.2424    1.0604 H   0  0  0  0  0  0  0  0  0  0  0  0
   -2.9709   -1.5141   -0.5494 H   0  0  0  0  0  0  0  0  0  0  0  0
   -4.3599   -0.3993   -0.3620 H   0  0  0  0  0  0  0  0  0  0  0  0
  1  2  1  0  0  0  0
  2  3  1  0  0  0  0
  3  4  2  0  0  0  0
  3  5  1  0  0  0  0
  5  6  1  0  0  0  0
  6  7  1  0  0  0  0
  7  8  2  0  0  0  0
  7  9  1  0  0  0  0
  9 10  1  0  0  0  0
  1 11  1  0  0  0  0
  1 12  1  0  0  0  0
  1 13  1  0  0  0  0
  5 14  1  0  0  0  0
  5 15  1  0  0  0  0
  6 16  1  0  0  0  0
  6 17  1  0  0  0  0
 10 18  1  0  0  0  0
 10 19  1  0  0  0  0
 10 20  1  0  0  0  0
M  END
