 xtb: 6.7.1 (edcfbbe)
          07092616123D

 28 28  0     0  0            999 V2000
    4.8485    0.3444   -0.7634 C   0  0  0  0  0  0  0  0  0  0  0  0
    3.5447   -0.4398   -0.6835 C   0  0  0  0  0  0  0  0  0  0  0  0
    2.3570    0.4755   -0.3987 C   0  0  0  0  0  0  0  0  0  0  0  0
    1.0519   -0.3071   -0.3160 C   0  0  0  0  0  0  0  0  0  0  0  0
    0.0059    0.6121   -0.0465 O   0  0  0  0  0  0  0  0  0  0  0  0
   -1.2576    0.1660    0.0373 C   0  0  0  0  0  0  0  0  0  0  0  0
   -1.6599   -1.1129   -0.0794 C   0  0  0  0  0  0  0  0  0  0  0  0
   -3.0544   -1.5145   -0.0056 C   0  0  0  0  0  0  0  0  0  0  0  0
   -3.4026   -2.6736   -0.1177 O   0  0  0  0  0  0  0  0  0  0  0  0
   -4.0622   -0.3955    0.1883 C   0  0  0  0  0  0  0  0  0  0  0  0
   -3.4759    0.7621    0.9847 C   0  0  0  0  0  0  0  0  0  0  0  0
   -2.2294    1.2842    0.2808 C   0  0  0  0  0  0  0  0  0  0  0  0
    4.8002    1.0851   -1.5583 H   0  0  0  0  0  0  0  0  0  0  0  0
    5.0413    0.8606    0.1741 H   0  0  0  0  0  0  0  0  0  0  0  0
    5.6824   -0.3229   -0.9659 H   0  0  0  0  0  0  0  0  0  0  0  0
    3.6196   -1.1907    0.1060 H   0  0  0  0  0  0  0  0  0  0  0  0
    3.3779   -0.9656   -1.6260 H   0  0  0  0  0  0  0  0  0  0  0  0
    2.5105    1.0015    0.5450 H   0  0  0  0  0  0  0  0  0  0  0  0
    2.2672    1.2249   -1.1869 H   0  0  0  0  0  0  0  0  0  0  0  0
    0.8556   -0.8260   -1.2632 H   0  0  0  0  0  0  0  0  0  0  0  0
    1.1048   -1.0545    0.4862 H   0  0  0  0  0  0  0  0  0  0  0  0
   -0.9614   -1.9199   -0.2396 H   0  0  0  0  0  0  0  0  0  0  0  0
   -4.3550   -0.0500   -0.8081 H   0  0  0  0  0  0  0  0  0  0  0  0
   -4.9508   -0.8052    0.6705 H   0  0  0  0  0  0  0  0  0  0  0  0
   -4.2111    1.5624    1.0856 H   0  0  0  0  0  0  0  0  0  0  0  0
   -3.2114    0.4166    1.9864 H   0  0  0  0  0  0  0  0  0  0  0  0
   -1.7319    2.0597    0.8654 H   0  0  0  0  0  0  0  0  0  0  0  0
   -2.5038    1.7233   -0.6837 H   0  0  0  0  0  0  0  0  0  0  0  0
  1  2  1  0  0  0  0
  2  3  1  0  0  0  0
  3  4  1  0  0  0  0
  4  5  1  0  0  0  0
  5  6  1  0  0  0  0
  6  7  2  0  0  0  0
  7  8  1  0  0  0  0
  8  9  2  0  0  0  0
  8 10  1  0  0  0  0
 10 11  1  0  0  0  0
  6 12  1  0  0  0  0
 11 12  1  0  0  0  0
  1 13  1  0  0  0  0
  1 14  1  0  0  0  0
  1 15  1  0  0  0  0
  2 16  1  0  0  0  0
  2 17  1  0  0  0  0
  3 18  1  0  0  0  0
  3 19  1  0  0  0  0
  4 20  1  0  0  0  0
  4 21  1  0  0  0  0
  7 22  1  0  0  0  0
 10 23  1  0  0  0  0
 10 24  1  0  0  0  0
 11 25  1  0  0  0  0
 11 26  1  0  0  0  0
 12 27  1  0  0  0  0
 12 28  1  0  0  0  0
M  END
