 xtb: 6.7.1 (edcfbbe)
          07092614053D

 18 19  0     0  0            999 V2000
   -3.5178   -0.5666   -1.1968 O   0  0  0  0  0  0  0  0  0  0  0  0
   -2.4017   -1.0259   -1.0720 N   0  0  0  0  0  0  0  0  0  0  0  0
   -2.0626   -2.1233   -1.4575 O   0  0  0  0  0  0  0  0  0  0  0  0
   -1.4115   -0.2055   -0.4178 C   0  0  0  0  0  0  0  0  0  0  0  0
   -1.7700    1.0562    0.0382 C   0  0  0  0  0  0  0  0  0  0  0  0
   -0.8135    1.8342    0.6641 C   0  0  0  0  0  0  0  0  0  0  0  0
    0.4751    1.3548    0.8286 C   0  0  0  0  0  0  0  0  0  0  0  0
    0.8299    0.0890    0.3698 C   0  0  0  0  0  0  0  0  0  0  0  0
    2.2378   -0.4109    0.5621 C   0  0  0  0  0  0  0  0  0  0  0  0
    2.3803   -1.6957    0.0111 O   0  0  0  0  0  0  0  0  0  0  0  0
   -0.1222   -0.6960   -0.2583 C   0  0  0  0  0  0  0  0  0  0  0  0
   -2.7814    1.4043   -0.1030 H   0  0  0  0  0  0  0  0  0  0  0  0
   -1.0726    2.8172    1.0257 H   0  0  0  0  0  0  0  0  0  0  0  0
    1.2170    1.9683    1.3189 H   0  0  0  0  0  0  0  0  0  0  0  0
    2.9321    0.2993    0.0843 H   0  0  0  0  0  0  0  0  0  0  0  0
    2.4620   -0.4214    1.6414 H   0  0  0  0  0  0  0  0  0  0  0  0
    3.2839   -1.9992    0.1419 H   0  0  0  0  0  0  0  0  0  0  0  0
    0.1352   -1.6788   -0.6205 H   0  0  0  0  0  0  0  0  0  0  0  0
  1  2  4  0  0  0  0
  1  3  1  0  0  0  0
  2  3  4  0  0  0  0
  2  4  1  0  0  0  0
  4  5  4  0  0  0  0
  5  6  4  0  0  0  0
  6  7  4  0  0  0  0
  7  8  4  0  0  0  0
  8  9  1  0  0  0  0
  9 10  1  0  0  0  0
  4 11  4  0  0  0  0
  8 11  4  0  0  0  0
  5 12  1  0  0  0  0
  6 13  1  0  0  0  0
  7 14  1  0  0  0  0
  9 15  1  0  0  0  0
  9 16  1  0  0  0  0
 10 17  1  0  0  0  0
 11 18  1  0  0  0  0
M  END
