 xtb: 6.7.1 (edcfbbe)
          07082604193D

 24 25  0     0  0            999 V2000
   -2.9620   -1.3852   -0.0878 C   0  0  0  0  0  0  0  0  0  0  0  0
   -1.6802   -1.0831    0.4101 O   0  0  0  0  0  0  0  0  0  0  0  0
   -0.8388   -0.4373   -0.5171 C   0  0  0  0  0  0  0  0  0  0  0  0
    0.5745   -0.4084    0.0024 C   0  0  0  0  0  0  0  0  0  0  0  0
    1.2838   -1.4434    0.5776 C   0  0  0  0  0  0  0  0  0  0  0  0
    2.5828   -1.2012    0.9992 C   0  0  0  0  0  0  0  0  0  0  0  0
    3.1523    0.0522    0.8430 C   0  0  0  0  0  0  0  0  0  0  0  0
    2.4348    1.0902    0.2668 C   0  0  0  0  0  0  0  0  0  0  0  0
    1.1393    0.8530   -0.1508 C   0  0  0  0  0  0  0  0  0  0  0  0
    0.1722    1.8013   -0.7900 C   0  0  0  0  0  0  0  0  0  0  0  0
   -1.1906    1.0730   -0.7134 C   0  0  0  0  0  0  0  0  0  0  0  0
   -1.9772    1.5474    0.3482 O   0  0  0  0  0  0  0  0  0  0  0  0
   -3.4777   -1.9206    0.7071 H   0  0  0  0  0  0  0  0  0  0  0  0
   -2.8963   -2.0242   -0.9769 H   0  0  0  0  0  0  0  0  0  0  0  0
   -3.5207   -0.4785   -0.3386 H   0  0  0  0  0  0  0  0  0  0  0  0
   -0.8778   -0.9617   -1.4876 H   0  0  0  0  0  0  0  0  0  0  0  0
    0.8283   -2.4135    0.7028 H   0  0  0  0  0  0  0  0  0  0  0  0
    3.1545   -1.9961    1.4547 H   0  0  0  0  0  0  0  0  0  0  0  0
    4.1649    0.2246    1.1770 H   0  0  0  0  0  0  0  0  0  0  0  0
    2.8787    2.0680    0.1515 H   0  0  0  0  0  0  0  0  0  0  0  0
    0.4499    1.9918   -1.8287 H   0  0  0  0  0  0  0  0  0  0  0  0
    0.1171    2.7586   -0.2703 H   0  0  0  0  0  0  0  0  0  0  0  0
   -1.7799    1.2410   -1.6203 H   0  0  0  0  0  0  0  0  0  0  0  0
   -1.7318    1.0519    1.1411 H   0  0  0  0  0  0  0  0  0  0  0  0
  1  2  1  0  0  0  0
  2  3  1  0  0  0  0
  3  4  1  0  0  0  0
  4  5  4  0  0  0  0
  5  6  4  0  0  0  0
  6  7  4  0  0  0  0
  7  8  4  0  0  0  0
  4  9  4  0  0  0  0
  8  9  4  0  0  0  0
  9 10  1  0  0  0  0
  3 11  1  0  0  0  0
 10 11  1  0  0  0  0
 11 12  1  0  0  0  0
  1 13  1  0  0  0  0
  1 14  1  0  0  0  0
  1 15  1  0  0  0  0
  3 16  1  0  0  0  0
  5 17  1  0  0  0  0
  6 18  1  0  0  0  0
  7 19  1  0  0  0  0
  8 20  1  0  0  0  0
 10 21  1  0  0  0  0
 10 22  1  0  0  0  0
 11 23  1  0  0  0  0
 12 24  1  0  0  0  0
M  END
