 xtb: 6.7.1 (edcfbbe)
          07092613213D

 20 20  0     0  0            999 V2000
    4.0743   -0.1027    0.3446 C   0  0  0  0  0  0  0  0  0  0  0  0
    2.9967   -0.1584   -0.4131 C   0  0  0  0  0  0  0  0  0  0  0  0
    1.7190    0.5640   -0.1140 C   0  0  0  0  0  0  0  0  0  0  0  0
    0.6478   -0.3360   -0.3360 O   0  0  0  0  0  0  0  0  0  0  0  0
   -0.6232    0.0945   -0.1544 C   0  0  0  0  0  0  0  0  0  0  0  0
   -1.6232   -0.8537   -0.3909 C   0  0  0  0  0  0  0  0  0  0  0  0
   -2.9529   -0.5279   -0.2399 C   0  0  0  0  0  0  0  0  0  0  0  0
   -3.2951    0.7573    0.1517 C   0  0  0  0  0  0  0  0  0  0  0  0
   -5.1326    1.2173    0.3628 Br  0  0  0  0  0  0  0  0  0  0  0  0
   -2.3228    1.7084    0.3912 C   0  0  0  0  0  0  0  0  0  0  0  0
   -0.9863    1.3797    0.2390 C   0  0  0  0  0  0  0  0  0  0  0  0
    4.1019    0.4746    1.2543 H   0  0  0  0  0  0  0  0  0  0  0  0
    4.9782   -0.6240    0.0822 H   0  0  0  0  0  0  0  0  0  0  0  0
    2.9738   -0.7457   -1.3197 H   0  0  0  0  0  0  0  0  0  0  0  0
    1.7129    0.9245    0.9232 H   0  0  0  0  0  0  0  0  0  0  0  0
    1.6235    1.4292   -0.7901 H   0  0  0  0  0  0  0  0  0  0  0  0
   -1.3281   -1.8454   -0.6941 H   0  0  0  0  0  0  0  0  0  0  0  0
   -3.7203   -1.2636   -0.4239 H   0  0  0  0  0  0  0  0  0  0  0  0
   -2.6007    2.7057    0.6962 H   0  0  0  0  0  0  0  0  0  0  0  0
   -0.2428    2.1368    0.4312 H   0  0  0  0  0  0  0  0  0  0  0  0
  1  2  2  0  0  0  0
  2  3  1  0  0  0  0
  3  4  1  0  0  0  0
  4  5  1  0  0  0  0
  5  6  4  0  0  0  0
  6  7  4  0  0  0  0
  7  8  4  0  0  0  0
  8  9  1  0  0  0  0
  8 10  4  0  0  0  0
  5 11  4  0  0  0  0
 10 11  4  0  0  0  0
  1 12  1  0  0  0  0
  1 13  1  0  0  0  0
  2 14  1  0  0  0  0
  3 15  1  0  0  0  0
  3 16  1  0  0  0  0
  6 17  1  0  0  0  0
  7 18  1  0  0  0  0
 10 19  1  0  0  0  0
 11 20  1  0  0  0  0
M  END
