 xtb: 6.7.1 (edcfbbe)
          07092600483D

 19 19  0     0  0            999 V2000
   -3.3710    0.0309   -0.2514 C   0  0  0  0  0  0  0  0  0  0  0  0
   -1.9517    0.5686   -0.1576 C   0  0  0  0  0  0  0  0  0  0  0  0
   -1.0842   -0.5376    0.0053 O   0  0  0  0  0  0  0  0  0  0  0  0
    0.2499   -0.3212    0.1148 C   0  0  0  0  0  0  0  0  0  0  0  0
    1.0405   -1.4628    0.2731 C   0  0  0  0  0  0  0  0  0  0  0  0
    2.4092   -1.3622    0.3943 C   0  0  0  0  0  0  0  0  0  0  0  0
    3.0075   -0.1109    0.3584 C   0  0  0  0  0  0  0  0  0  0  0  0
    4.7265    0.0230    0.5101 Cl  0  0  0  0  0  0  0  0  0  0  0  0
    2.2410    1.0287    0.2025 C   0  0  0  0  0  0  0  0  0  0  0  0
    0.8651    0.9268    0.0807 C   0  0  0  0  0  0  0  0  0  0  0  0
   -3.4562   -0.6445   -1.0981 H   0  0  0  0  0  0  0  0  0  0  0  0
   -3.6209   -0.5156    0.6536 H   0  0  0  0  0  0  0  0  0  0  0  0
   -4.0699    0.8527   -0.3776 H   0  0  0  0  0  0  0  0  0  0  0  0
   -1.6929    1.1184   -1.0731 H   0  0  0  0  0  0  0  0  0  0  0  0
   -1.8595    1.2489    0.7003 H   0  0  0  0  0  0  0  0  0  0  0  0
    0.5524   -2.4239    0.2979 H   0  0  0  0  0  0  0  0  0  0  0  0
    3.0132   -2.2473    0.5162 H   0  0  0  0  0  0  0  0  0  0  0  0
    2.7131    1.9983    0.1755 H   0  0  0  0  0  0  0  0  0  0  0  0
    0.2880    1.8295   -0.0400 H   0  0  0  0  0  0  0  0  0  0  0  0
  1  2  1  0  0  0  0
  2  3  1  0  0  0  0
  3  4  1  0  0  0  0
  4  5  4  0  0  0  0
  5  6  4  0  0  0  0
  6  7  4  0  0  0  0
  7  8  1  0  0  0  0
  7  9  4  0  0  0  0
  4 10  4  0  0  0  0
  9 10  4  0  0  0  0
  1 11  1  0  0  0  0
  1 12  1  0  0  0  0
  1 13  1  0  0  0  0
  2 14  1  0  0  0  0
  2 15  1  0  0  0  0
  5 16  1  0  0  0  0
  6 17  1  0  0  0  0
  9 18  1  0  0  0  0
 10 19  1  0  0  0  0
M  END
