 xtb: 6.7.1 (edcfbbe)
          07082617183D

 13 12  0     0  0            999 V2000
   -1.2192   -1.1049    0.0367 C   0  0  0  0  0  0  0  0  0  0  0  0
   -0.4314    0.1669    0.3182 C   0  0  0  0  0  0  0  0  0  0  0  0
   -1.0587    1.2370   -0.3487 O   0  0  0  0  0  0  0  0  0  0  0  0
    1.0248    0.0396   -0.1479 C   0  0  0  0  0  0  0  0  0  0  0  0
    1.6702    1.2647    0.1428 O   0  0  0  0  0  0  0  0  0  0  0  0
   -0.7829   -1.9477    0.5650 H   0  0  0  0  0  0  0  0  0  0  0  0
   -1.2204   -1.3079   -1.0310 H   0  0  0  0  0  0  0  0  0  0  0  0
   -2.2462   -0.9690    0.3618 H   0  0  0  0  0  0  0  0  0  0  0  0
   -0.4194    0.3668    1.4028 H   0  0  0  0  0  0  0  0  0  0  0  0
   -0.4563    1.9897   -0.3014 H   0  0  0  0  0  0  0  0  0  0  0  0
    1.0428   -0.1577   -1.2285 H   0  0  0  0  0  0  0  0  0  0  0  0
    1.5103   -0.7935    0.3763 H   0  0  0  0  0  0  0  0  0  0  0  0
    2.5862    1.2161   -0.1461 H   0  0  0  0  0  0  0  0  0  0  0  0
  1  2  1  0  0  0  0
  2  3  1  0  0  0  0
  2  4  1  0  0  0  0
  4  5  1  0  0  0  0
  1  6  1  0  0  0  0
  1  7  1  0  0  0  0
  1  8  1  0  0  0  0
  2  9  1  0  0  0  0
  3 10  1  0  0  0  0
  4 11  1  0  0  0  0
  4 12  1  0  0  0  0
  5 13  1  0  0  0  0
M  END
