 xtb: 6.7.1 (edcfbbe)
          07092612103D

 25 25  0     0  0            999 V2000
   -2.7732    0.5683   -0.4502 C   0  0  0  0  0  0  0  0  0  0  0  0
   -1.8520   -0.6072   -0.1475 C   0  0  0  0  0  0  0  0  0  0  0  0
   -2.6401   -1.7782   -0.2690 O   0  0  0  0  0  0  0  0  0  0  0  0
   -1.2287   -0.5219    1.2528 C   0  0  0  0  0  0  0  0  0  0  0  0
   -0.1951    0.6014    1.4010 C   0  0  0  0  0  0  0  0  0  0  0  0
    0.9588    0.4196    0.4554 C   0  0  0  0  0  0  0  0  0  0  0  0
    1.1014    1.2227   -0.6684 C   0  0  0  0  0  0  0  0  0  0  0  0
    2.1490    1.0261   -1.5511 C   0  0  0  0  0  0  0  0  0  0  0  0
    3.0711    0.0200   -1.3216 C   0  0  0  0  0  0  0  0  0  0  0  0
    2.9428   -0.7834   -0.2011 C   0  0  0  0  0  0  0  0  0  0  0  0
    1.8955   -0.5829    0.6795 C   0  0  0  0  0  0  0  0  0  0  0  0
   -2.2153    1.4985   -0.4786 H   0  0  0  0  0  0  0  0  0  0  0  0
   -3.5491    0.6326    0.3080 H   0  0  0  0  0  0  0  0  0  0  0  0
   -3.2473    0.4107   -1.4148 H   0  0  0  0  0  0  0  0  0  0  0  0
   -1.0413   -0.6346   -0.8955 H   0  0  0  0  0  0  0  0  0  0  0  0
   -2.0956   -2.5459   -0.0658 H   0  0  0  0  0  0  0  0  0  0  0  0
   -2.0278   -0.3832    1.9842 H   0  0  0  0  0  0  0  0  0  0  0  0
   -0.7404   -1.4773    1.4693 H   0  0  0  0  0  0  0  0  0  0  0  0
    0.1739    0.5902    2.4298 H   0  0  0  0  0  0  0  0  0  0  0  0
   -0.6719    1.5662    1.2264 H   0  0  0  0  0  0  0  0  0  0  0  0
    0.3860    2.0112   -0.8548 H   0  0  0  0  0  0  0  0  0  0  0  0
    2.2446    1.6597   -2.4208 H   0  0  0  0  0  0  0  0  0  0  0  0
    3.8878   -0.1360   -2.0107 H   0  0  0  0  0  0  0  0  0  0  0  0
    3.6620   -1.5673   -0.0125 H   0  0  0  0  0  0  0  0  0  0  0  0
    1.8048   -1.2093    1.5561 H   0  0  0  0  0  0  0  0  0  0  0  0
  1  2  1  0  0  0  0
  2  3  1  0  0  0  0
  2  4  1  0  0  0  0
  4  5  1  0  0  0  0
  5  6  1  0  0  0  0
  6  7  4  0  0  0  0
  7  8  4  0  0  0  0
  8  9  4  0  0  0  0
  9 10  4  0  0  0  0
  6 11  4  0  0  0  0
 10 11  4  0  0  0  0
  1 12  1  0  0  0  0
  1 13  1  0  0  0  0
  1 14  1  0  0  0  0
  2 15  1  0  0  0  0
  3 16  1  0  0  0  0
  4 17  1  0  0  0  0
  4 18  1  0  0  0  0
  5 19  1  0  0  0  0
  5 20  1  0  0  0  0
  7 21  1  0  0  0  0
  8 22  1  0  0  0  0
  9 23  1  0  0  0  0
 10 24  1  0  0  0  0
 11 25  1  0  0  0  0
M  END
