 xtb: 6.7.1 (edcfbbe)
          07072613023D

 31 31  0     0  0            999 V2000
   -3.7292   -1.4913   -1.0701 C   0  0  0  0  0  0  0  0  0  0  0  0
   -3.4445   -0.6681    0.1800 C   0  0  0  0  0  0  0  0  0  0  0  0
   -1.9571   -0.3527    0.3114 C   0  0  0  0  0  0  0  0  0  0  0  0
   -1.6682    0.4845    1.5535 C   0  0  0  0  0  0  0  0  0  0  0  0
   -0.2618    0.7044    1.7030 O   0  0  0  0  0  0  0  0  0  0  0  0
    0.2703    1.7001    1.0138 C   0  0  0  0  0  0  0  0  0  0  0  0
   -0.3359    2.5013    0.3455 O   0  0  0  0  0  0  0  0  0  0  0  0
    1.7945    1.7314    1.1001 C   0  0  0  0  0  0  0  0  0  0  0  0
    2.2561    2.9884    0.7036 O   0  0  0  0  0  0  0  0  0  0  0  0
    2.2595    0.5945    0.2018 C   0  0  0  0  0  0  0  0  0  0  0  0
    2.2126   -0.7142    0.6645 C   0  0  0  0  0  0  0  0  0  0  0  0
    2.5938   -1.7558   -0.1612 C   0  0  0  0  0  0  0  0  0  0  0  0
    3.0247   -1.4986   -1.4527 C   0  0  0  0  0  0  0  0  0  0  0  0
    3.0748   -0.1950   -1.9140 C   0  0  0  0  0  0  0  0  0  0  0  0
    2.6888    0.8497   -1.0918 C   0  0  0  0  0  0  0  0  0  0  0  0
   -4.7915   -1.7075   -1.1502 H   0  0  0  0  0  0  0  0  0  0  0  0
   -3.4203   -0.9493   -1.9608 H   0  0  0  0  0  0  0  0  0  0  0  0
   -3.1875   -2.4339   -1.0381 H   0  0  0  0  0  0  0  0  0  0  0  0
   -3.7778   -1.2178    1.0630 H   0  0  0  0  0  0  0  0  0  0  0  0
   -4.0080    0.2661    0.1369 H   0  0  0  0  0  0  0  0  0  0  0  0
   -1.6187    0.1983   -0.5688 H   0  0  0  0  0  0  0  0  0  0  0  0
   -1.3816   -1.2794    0.3690 H   0  0  0  0  0  0  0  0  0  0  0  0
   -1.9753   -0.0375    2.4618 H   0  0  0  0  0  0  0  0  0  0  0  0
   -2.1767    1.4518    1.4895 H   0  0  0  0  0  0  0  0  0  0  0  0
    2.1150    1.5447    2.1311 H   0  0  0  0  0  0  0  0  0  0  0  0
    1.5435    3.4028    0.1894 H   0  0  0  0  0  0  0  0  0  0  0  0
    1.8734   -0.9122    1.6706 H   0  0  0  0  0  0  0  0  0  0  0  0
    2.5569   -2.7716    0.2043 H   0  0  0  0  0  0  0  0  0  0  0  0
    3.3224   -2.3133   -2.0959 H   0  0  0  0  0  0  0  0  0  0  0  0
    3.4124    0.0117   -2.9188 H   0  0  0  0  0  0  0  0  0  0  0  0
    2.7351    1.8684   -1.4454 H   0  0  0  0  0  0  0  0  0  0  0  0
  1  2  1  0  0  0  0
  2  3  1  0  0  0  0
  3  4  1  0  0  0  0
  4  5  1  0  0  0  0
  5  6  1  0  0  0  0
  6  7  2  0  0  0  0
  6  8  1  0  0  0  0
  8  9  1  0  0  0  0
  8 10  1  0  0  0  0
 10 11  4  0  0  0  0
 11 12  4  0  0  0  0
 12 13  4  0  0  0  0
 13 14  4  0  0  0  0
 10 15  4  0  0  0  0
 14 15  4  0  0  0  0
  1 16  1  0  0  0  0
  1 17  1  0  0  0  0
  1 18  1  0  0  0  0
  2 19  1  0  0  0  0
  2 20  1  0  0  0  0
  3 21  1  0  0  0  0
  3 22  1  0  0  0  0
  4 23  1  0  0  0  0
  4 24  1  0  0  0  0
  8 25  1  0  0  0  0
  9 26  1  0  0  0  0
 11 27  1  0  0  0  0
 12 28  1  0  0  0  0
 13 29  1  0  0  0  0
 14 30  1  0  0  0  0
 15 31  1  0  0  0  0
M  END
