 xtb: 6.7.1 (edcfbbe)
          07082601163D

 34 33  0     0  0            999 V2000
   -3.4949    2.5082   -0.4370 C   0  0  0  0  0  0  0  0  0  0  0  0
   -3.7708    1.4656    0.6404 C   0  0  0  0  0  0  0  0  0  0  0  0
   -3.3781    0.0483    0.2220 C   0  0  0  0  0  0  0  0  0  0  0  0
   -1.8720   -0.1365    0.0474 C   0  0  0  0  0  0  0  0  0  0  0  0
   -1.5170   -1.5932   -0.2460 C   0  0  0  0  0  0  0  0  0  0  0  0
   -0.0421   -1.8018   -0.5878 C   0  0  0  0  0  0  0  0  0  0  0  0
    0.8907   -1.5669    0.5973 C   0  0  0  0  0  0  0  0  0  0  0  0
    2.3503   -1.7668    0.2200 C   0  0  0  0  0  0  0  0  0  0  0  0
    2.9422   -0.5505   -1.0068 S   0  0  0  0  0  0  0  0  0  0  0  0
    3.1806    0.9249    0.0459 C   0  0  0  0  0  0  0  0  0  0  0  0
    4.5101    0.8699    0.7907 C   0  0  0  0  0  0  0  0  0  0  0  0
    5.6079    0.8860   -0.0779 O   0  0  0  0  0  0  0  0  0  0  0  0
   -3.8687    3.4809   -0.1251 H   0  0  0  0  0  0  0  0  0  0  0  0
   -3.9888    2.2335   -1.3666 H   0  0  0  0  0  0  0  0  0  0  0  0
   -2.4290    2.6017   -0.6277 H   0  0  0  0  0  0  0  0  0  0  0  0
   -4.8381    1.4752    0.8742 H   0  0  0  0  0  0  0  0  0  0  0  0
   -3.2322    1.7348    1.5523 H   0  0  0  0  0  0  0  0  0  0  0  0
   -3.7297   -0.6512    0.9850 H   0  0  0  0  0  0  0  0  0  0  0  0
   -3.8839   -0.2035   -0.7131 H   0  0  0  0  0  0  0  0  0  0  0  0
   -1.3711    0.1933    0.9599 H   0  0  0  0  0  0  0  0  0  0  0  0
   -1.5169    0.4851   -0.7762 H   0  0  0  0  0  0  0  0  0  0  0  0
   -2.1178   -1.9327   -1.0930 H   0  0  0  0  0  0  0  0  0  0  0  0
   -1.7817   -2.2133    0.6141 H   0  0  0  0  0  0  0  0  0  0  0  0
    0.0982   -2.8257   -0.9436 H   0  0  0  0  0  0  0  0  0  0  0  0
    0.2400   -1.1296   -1.4011 H   0  0  0  0  0  0  0  0  0  0  0  0
    0.7514   -0.5552    0.9830 H   0  0  0  0  0  0  0  0  0  0  0  0
    0.6453   -2.2643    1.4030 H   0  0  0  0  0  0  0  0  0  0  0  0
    3.0019   -1.6993    1.0913 H   0  0  0  0  0  0  0  0  0  0  0  0
    2.4975   -2.7347   -0.2586 H   0  0  0  0  0  0  0  0  0  0  0  0
    3.1703    1.7717   -0.6391 H   0  0  0  0  0  0  0  0  0  0  0  0
    2.3407    1.0017    0.7338 H   0  0  0  0  0  0  0  0  0  0  0  0
    4.5401   -0.0240    1.4346 H   0  0  0  0  0  0  0  0  0  0  0  0
    4.6099    1.7526    1.4288 H   0  0  0  0  0  0  0  0  0  0  0  0
    5.4556    0.2157   -0.7589 H   0  0  0  0  0  0  0  0  0  0  0  0
  1  2  1  0  0  0  0
  2  3  1  0  0  0  0
  3  4  1  0  0  0  0
  4  5  1  0  0  0  0
  5  6  1  0  0  0  0
  6  7  1  0  0  0  0
  7  8  1  0  0  0  0
  8  9  1  0  0  0  0
  9 10  1  0  0  0  0
 10 11  1  0  0  0  0
 11 12  1  0  0  0  0
  1 13  1  0  0  0  0
  1 14  1  0  0  0  0
  1 15  1  0  0  0  0
  2 16  1  0  0  0  0
  2 17  1  0  0  0  0
  3 18  1  0  0  0  0
  3 19  1  0  0  0  0
  4 20  1  0  0  0  0
  4 21  1  0  0  0  0
  5 22  1  0  0  0  0
  5 23  1  0  0  0  0
  6 24  1  0  0  0  0
  6 25  1  0  0  0  0
  7 26  1  0  0  0  0
  7 27  1  0  0  0  0
  8 28  1  0  0  0  0
  8 29  1  0  0  0  0
 10 30  1  0  0  0  0
 10 31  1  0  0  0  0
 11 32  1  0  0  0  0
 11 33  1  0  0  0  0
 12 34  1  0  0  0  0
M  END
