 xtb: 6.7.1 (edcfbbe)
          07082604573D

 20 20  0     0  0            999 V2000
    3.5029    0.3100    0.4633 C   0  0  0  0  0  0  0  0  0  0  0  0
    2.6208   -0.7154    0.0783 O   0  0  0  0  0  0  0  0  0  0  0  0
    1.2870   -0.4403    0.0237 C   0  0  0  0  0  0  0  0  0  0  0  0
    0.7103    0.7853    0.3353 C   0  0  0  0  0  0  0  0  0  0  0  0
   -0.6619    0.9442    0.2415 C   0  0  0  0  0  0  0  0  0  0  0  0
   -1.4822   -0.1005   -0.1543 C   0  0  0  0  0  0  0  0  0  0  0  0
   -2.9753    0.0970   -0.2483 C   0  0  0  0  0  0  0  0  0  0  0  0
   -3.4889    0.9846    0.7182 O   0  0  0  0  0  0  0  0  0  0  0  0
   -0.8999   -1.3252   -0.4617 C   0  0  0  0  0  0  0  0  0  0  0  0
    0.4650   -1.4948   -0.3778 C   0  0  0  0  0  0  0  0  0  0  0  0
    3.2962    0.6591    1.4804 H   0  0  0  0  0  0  0  0  0  0  0  0
    3.4601    1.1583   -0.2278 H   0  0  0  0  0  0  0  0  0  0  0  0
    4.4984   -0.1300    0.4305 H   0  0  0  0  0  0  0  0  0  0  0  0
    1.3137    1.6227    0.6483 H   0  0  0  0  0  0  0  0  0  0  0  0
   -1.1064    1.8993    0.4812 H   0  0  0  0  0  0  0  0  0  0  0  0
   -3.2306    0.5474   -1.2138 H   0  0  0  0  0  0  0  0  0  0  0  0
   -3.4816   -0.8781   -0.1851 H   0  0  0  0  0  0  0  0  0  0  0  0
   -3.2301    0.6690    1.5912 H   0  0  0  0  0  0  0  0  0  0  0  0
   -1.5229   -2.1518   -0.7717 H   0  0  0  0  0  0  0  0  0  0  0  0
    0.9254   -2.4408   -0.6150 H   0  0  0  0  0  0  0  0  0  0  0  0
  1  2  1  0  0  0  0
  2  3  1  0  0  0  0
  3  4  4  0  0  0  0
  4  5  4  0  0  0  0
  5  6  4  0  0  0  0
  6  7  1  0  0  0  0
  7  8  1  0  0  0  0
  6  9  4  0  0  0  0
  3 10  4  0  0  0  0
  9 10  4  0  0  0  0
  1 11  1  0  0  0  0
  1 12  1  0  0  0  0
  1 13  1  0  0  0  0
  4 14  1  0  0  0  0
  5 15  1  0  0  0  0
  7 16  1  0  0  0  0
  7 17  1  0  0  0  0
  8 18  1  0  0  0  0
  9 19  1  0  0  0  0
 10 20  1  0  0  0  0
M  END
