 xtb: 6.7.1 (edcfbbe)
          07072621563D

 13 13  0     0  0            999 V2000
   -2.1505   -0.4472   -0.5556 C   0  0  0  0  0  0  0  0  0  0  0  0
   -0.7467   -0.1546   -0.1903 C   0  0  0  0  0  0  0  0  0  0  0  0
    0.2515   -0.4249   -0.8957 N   0  0  0  0  0  0  0  0  0  0  0  0
    1.5205   -0.0560   -0.3561 C   0  0  0  0  0  0  0  0  0  0  0  0
    1.3561    0.6200    1.0294 C   0  0  0  0  0  0  0  0  0  0  0  0
   -0.4318    0.6469    1.3732 S   0  0  0  0  0  0  0  0  0  0  0  0
   -2.7284    0.4754   -0.5701 H   0  0  0  0  0  0  0  0  0  0  0  0
   -2.1831   -0.9178   -1.5341 H   0  0  0  0  0  0  0  0  0  0  0  0
   -2.5944   -1.1090    0.1864 H   0  0  0  0  0  0  0  0  0  0  0  0
    2.0077    0.6194   -1.0657 H   0  0  0  0  0  0  0  0  0  0  0  0
    2.1333   -0.9594   -0.2809 H   0  0  0  0  0  0  0  0  0  0  0  0
    1.8468    0.0606    1.8242 H   0  0  0  0  0  0  0  0  0  0  0  0
    1.7190    1.6466    1.0354 H   0  0  0  0  0  0  0  0  0  0  0  0
  1  2  1  0  0  0  0
  2  3  2  0  0  0  0
  3  4  1  0  0  0  0
  4  5  1  0  0  0  0
  2  6  1  0  0  0  0
  5  6  1  0  0  0  0
  1  7  1  0  0  0  0
  1  8  1  0  0  0  0
  1  9  1  0  0  0  0
  4 10  1  0  0  0  0
  4 11  1  0  0  0  0
  5 12  1  0  0  0  0
  5 13  1  0  0  0  0
M  END
