 xtb: 6.7.1 (edcfbbe)
          07072607563D

 31 31  0     0  0            999 V2000
   -1.4611    2.4420   -0.1004 C   0  0  0  0  0  0  0  0  0  0  0  0
   -2.2631    1.1734    0.1775 C   0  0  0  0  0  0  0  0  0  0  0  0
   -1.6614    0.3988    1.3479 C   0  0  0  0  0  0  0  0  0  0  0  0
   -2.3375    0.2979   -1.0795 C   0  0  0  0  0  0  0  0  0  0  0  0
   -1.0349   -0.1271   -1.4891 O   0  0  0  0  0  0  0  0  0  0  0  0
   -0.6933   -1.3823   -1.2649 C   0  0  0  0  0  0  0  0  0  0  0  0
   -1.4088   -2.2537   -0.8342 O   0  0  0  0  0  0  0  0  0  0  0  0
    0.7804   -1.6502   -1.5718 C   0  0  0  0  0  0  0  0  0  0  0  0
    1.0029   -3.0280   -1.6165 O   0  0  0  0  0  0  0  0  0  0  0  0
    1.5409   -0.9422   -0.4631 C   0  0  0  0  0  0  0  0  0  0  0  0
    1.8450   -1.6094    0.7147 C   0  0  0  0  0  0  0  0  0  0  0  0
    2.4847   -0.9426    1.7453 C   0  0  0  0  0  0  0  0  0  0  0  0
    2.8138    0.3949    1.6099 C   0  0  0  0  0  0  0  0  0  0  0  0
    2.5119    1.0633    0.4345 C   0  0  0  0  0  0  0  0  0  0  0  0
    1.8792    0.3978   -0.6000 C   0  0  0  0  0  0  0  0  0  0  0  0
   -1.9126    3.0138   -0.9078 H   0  0  0  0  0  0  0  0  0  0  0  0
   -1.4256    3.0669    0.7883 H   0  0  0  0  0  0  0  0  0  0  0  0
   -0.4437    2.1832   -0.3824 H   0  0  0  0  0  0  0  0  0  0  0  0
   -3.2949    1.4464    0.4249 H   0  0  0  0  0  0  0  0  0  0  0  0
   -0.6145    0.1697    1.1573 H   0  0  0  0  0  0  0  0  0  0  0  0
   -2.1961   -0.5345    1.5089 H   0  0  0  0  0  0  0  0  0  0  0  0
   -1.7176    0.9913    2.2576 H   0  0  0  0  0  0  0  0  0  0  0  0
   -2.7480    0.8668   -1.9176 H   0  0  0  0  0  0  0  0  0  0  0  0
   -2.9547   -0.5870   -0.8958 H   0  0  0  0  0  0  0  0  0  0  0  0
    1.0437   -1.2125   -2.5417 H   0  0  0  0  0  0  0  0  0  0  0  0
    0.2352   -3.4533   -1.1991 H   0  0  0  0  0  0  0  0  0  0  0  0
    1.5888   -2.6530    0.8161 H   0  0  0  0  0  0  0  0  0  0  0  0
    2.7207   -1.4690    2.6582 H   0  0  0  0  0  0  0  0  0  0  0  0
    3.3067    0.9162    2.4170 H   0  0  0  0  0  0  0  0  0  0  0  0
    2.7713    2.1060    0.3234 H   0  0  0  0  0  0  0  0  0  0  0  0
    1.6426    0.9163   -1.5178 H   0  0  0  0  0  0  0  0  0  0  0  0
  1  2  1  0  0  0  0
  2  3  1  0  0  0  0
  2  4  1  0  0  0  0
  4  5  1  0  0  0  0
  5  6  1  0  0  0  0
  6  7  2  0  0  0  0
  6  8  1  0  0  0  0
  8  9  1  0  0  0  0
  8 10  1  0  0  0  0
 10 11  4  0  0  0  0
 11 12  4  0  0  0  0
 12 13  4  0  0  0  0
 13 14  4  0  0  0  0
 10 15  4  0  0  0  0
 14 15  4  0  0  0  0
  1 16  1  0  0  0  0
  1 17  1  0  0  0  0
  1 18  1  0  0  0  0
  2 19  1  0  0  0  0
  3 20  1  0  0  0  0
  3 21  1  0  0  0  0
  3 22  1  0  0  0  0
  4 23  1  0  0  0  0
  4 24  1  0  0  0  0
  8 25  1  0  0  0  0
  9 26  1  0  0  0  0
 11 27  1  0  0  0  0
 12 28  1  0  0  0  0
 13 29  1  0  0  0  0
 14 30  1  0  0  0  0
 15 31  1  0  0  0  0
M  END
