 xtb: 6.7.1 (edcfbbe)
          07092602193D

 24 23  0     0  0            999 V2000
    0.2317   -1.3131   -1.2279 C   0  0  0  0  0  0  0  0  0  0  0  0
    0.5236   -0.4143   -0.2875 C   0  0  0  0  0  0  0  0  0  0  0  0
    1.7643   -0.1378    0.2022 O   0  0  0  0  0  0  0  0  0  0  0  0
    2.8587   -0.8604   -0.3225 C   0  0  0  0  0  0  0  0  0  0  0  0
    4.1170   -0.3731    0.3788 C   0  0  0  0  0  0  0  0  0  0  0  0
   -0.5236    0.4143    0.3503 C   0  0  0  0  0  0  0  0  0  0  0  0
   -0.2317    1.3131    1.2907 C   0  0  0  0  0  0  0  0  0  0  0  0
   -1.7643    0.1378   -0.1393 O   0  0  0  0  0  0  0  0  0  0  0  0
   -2.8587    0.8604    0.3854 C   0  0  0  0  0  0  0  0  0  0  0  0
   -4.1170    0.3731   -0.3159 C   0  0  0  0  0  0  0  0  0  0  0  0
   -0.7887   -1.4407   -1.5318 H   0  0  0  0  0  0  0  0  0  0  0  0
    0.9675   -1.9292   -1.7096 H   0  0  0  0  0  0  0  0  0  0  0  0
    2.7165   -1.9362   -0.1477 H   0  0  0  0  0  0  0  0  0  0  0  0
    2.9354   -0.6910   -1.4058 H   0  0  0  0  0  0  0  0  0  0  0  0
    4.2497    0.6911    0.2045 H   0  0  0  0  0  0  0  0  0  0  0  0
    4.9833   -0.9080    0.0001 H   0  0  0  0  0  0  0  0  0  0  0  0
    4.0331   -0.5407    1.4491 H   0  0  0  0  0  0  0  0  0  0  0  0
    0.7887    1.4407    1.5947 H   0  0  0  0  0  0  0  0  0  0  0  0
   -0.9675    1.9292    1.7725 H   0  0  0  0  0  0  0  0  0  0  0  0
   -2.9354    0.6910    1.4687 H   0  0  0  0  0  0  0  0  0  0  0  0
   -2.7164    1.9362    0.2106 H   0  0  0  0  0  0  0  0  0  0  0  0
   -4.9833    0.9081    0.0627 H   0  0  0  0  0  0  0  0  0  0  0  0
   -4.2497   -0.6911   -0.1416 H   0  0  0  0  0  0  0  0  0  0  0  0
   -4.0331    0.5407   -1.3862 H   0  0  0  0  0  0  0  0  0  0  0  0
  1  2  2  0  0  0  0
  2  3  1  0  0  0  0
  3  4  1  0  0  0  0
  4  5  1  0  0  0  0
  2  6  1  0  0  0  0
  6  7  2  0  0  0  0
  6  8  1  0  0  0  0
  8  9  1  0  0  0  0
  9 10  1  0  0  0  0
  1 11  1  0  0  0  0
  1 12  1  0  0  0  0
  4 13  1  0  0  0  0
  4 14  1  0  0  0  0
  5 15  1  0  0  0  0
  5 16  1  0  0  0  0
  5 17  1  0  0  0  0
  7 18  1  0  0  0  0
  7 19  1  0  0  0  0
  9 20  1  0  0  0  0
  9 21  1  0  0  0  0
 10 22  1  0  0  0  0
 10 23  1  0  0  0  0
 10 24  1  0  0  0  0
M  END
