 xtb: 6.7.1 (edcfbbe)
          07082614493D

 39 40  0     0  0            999 V2000
   -0.0115    1.9868   -1.5709 C   0  0  0  0  0  0  0  0  0  0  0  0
    0.0815    1.7946   -0.2632 C   0  0  0  0  0  0  0  0  0  0  0  0
    1.0063    2.6393    0.5791 C   0  0  0  0  0  0  0  0  0  0  0  0
    2.4179    2.0123    0.6386 C   0  0  0  0  0  0  0  0  0  0  0  0
    2.2525    0.5463    0.8760 C   0  0  0  0  0  0  0  0  0  0  0  0
    2.2532   -0.4077   -0.0472 C   0  0  0  0  0  0  0  0  0  0  0  0
    2.6946   -0.2257   -1.4683 C   0  0  0  0  0  0  0  0  0  0  0  0
    1.7143   -1.7791    0.2812 C   0  0  0  0  0  0  0  0  0  0  0  0
    0.2620   -1.7059    0.7840 C   0  0  0  0  0  0  0  0  0  0  0  0
   -0.6036   -0.7442   -0.0248 C   0  0  0  0  0  0  0  0  0  0  0  0
   -0.7065    0.7319    0.4455 C   0  0  0  0  0  0  0  0  0  0  0  0
   -2.2257    0.6742    0.1817 C   0  0  0  0  0  0  0  0  0  0  0  0
   -2.1489   -0.8617    0.0792 C   0  0  0  0  0  0  0  0  0  0  0  0
   -2.6544   -1.5378    1.3476 C   0  0  0  0  0  0  0  0  0  0  0  0
   -2.8253   -1.4721   -1.1406 C   0  0  0  0  0  0  0  0  0  0  0  0
    0.5501    2.7566   -2.0726 H   0  0  0  0  0  0  0  0  0  0  0  0
   -0.6476    1.3853   -2.1985 H   0  0  0  0  0  0  0  0  0  0  0  0
    1.0797    3.6462    0.1640 H   0  0  0  0  0  0  0  0  0  0  0  0
    0.6066    2.7183    1.5922 H   0  0  0  0  0  0  0  0  0  0  0  0
    2.9298    2.2056   -0.3027 H   0  0  0  0  0  0  0  0  0  0  0  0
    2.9888    2.4805    1.4436 H   0  0  0  0  0  0  0  0  0  0  0  0
    1.9517    0.2897    1.8837 H   0  0  0  0  0  0  0  0  0  0  0  0
    1.8316   -0.1873   -2.1325 H   0  0  0  0  0  0  0  0  0  0  0  0
    3.3137   -1.0702   -1.7709 H   0  0  0  0  0  0  0  0  0  0  0  0
    3.2678    0.6856   -1.6066 H   0  0  0  0  0  0  0  0  0  0  0  0
    1.7474   -2.3994   -0.6161 H   0  0  0  0  0  0  0  0  0  0  0  0
    2.3283   -2.2667    1.0432 H   0  0  0  0  0  0  0  0  0  0  0  0
   -0.1692   -2.7080    0.7257 H   0  0  0  0  0  0  0  0  0  0  0  0
    0.2531   -1.4080    1.8335 H   0  0  0  0  0  0  0  0  0  0  0  0
   -0.3056   -0.7895   -1.0732 H   0  0  0  0  0  0  0  0  0  0  0  0
   -0.5160    0.7899    1.5181 H   0  0  0  0  0  0  0  0  0  0  0  0
   -2.5024    1.1477   -0.7574 H   0  0  0  0  0  0  0  0  0  0  0  0
   -2.8586    1.0675    0.9752 H   0  0  0  0  0  0  0  0  0  0  0  0
   -2.1711   -1.1251    2.2288 H   0  0  0  0  0  0  0  0  0  0  0  0
   -3.7278   -1.3814    1.4418 H   0  0  0  0  0  0  0  0  0  0  0  0
   -2.4700   -2.6094    1.3209 H   0  0  0  0  0  0  0  0  0  0  0  0
   -2.5024   -0.9732   -2.0519 H   0  0  0  0  0  0  0  0  0  0  0  0
   -3.9069   -1.3772   -1.0637 H   0  0  0  0  0  0  0  0  0  0  0  0
   -2.5774   -2.5288   -1.2223 H   0  0  0  0  0  0  0  0  0  0  0  0
  1  2  2  0  0  0  0
  2  3  1  0  0  0  0
  3  4  1  0  0  0  0
  4  5  1  0  0  0  0
  5  6  2  0  0  0  0
  6  7  1  0  0  0  0
  6  8  1  0  0  0  0
  8  9  1  0  0  0  0
  9 10  1  0  0  0  0
  2 11  1  0  0  0  0
 10 11  1  0  0  0  0
 11 12  1  0  0  0  0
 10 13  1  0  0  0  0
 12 13  1  0  0  0  0
 13 14  1  0  0  0  0
 13 15  1  0  0  0  0
  1 16  1  0  0  0  0
  1 17  1  0  0  0  0
  3 18  1  0  0  0  0
  3 19  1  0  0  0  0
  4 20  1  0  0  0  0
  4 21  1  0  0  0  0
  5 22  1  0  0  0  0
  7 23  1  0  0  0  0
  7 24  1  0  0  0  0
  7 25  1  0  0  0  0
  8 26  1  0  0  0  0
  8 27  1  0  0  0  0
  9 28  1  0  0  0  0
  9 29  1  0  0  0  0
 10 30  1  0  0  0  0
 11 31  1  0  0  0  0
 12 32  1  0  0  0  0
 12 33  1  0  0  0  0
 14 34  1  0  0  0  0
 14 35  1  0  0  0  0
 14 36  1  0  0  0  0
 15 37  1  0  0  0  0
 15 38  1  0  0  0  0
 15 39  1  0  0  0  0
M  END
