 xtb: 6.7.1 (edcfbbe)
          07072603063D

 41 41  0     0  0            999 V2000
   -6.8604   -0.9703    0.1430 C   0  0  0  0  0  0  0  0  0  0  0  0
   -5.4715   -0.4335    0.4632 C   0  0  0  0  0  0  0  0  0  0  0  0
   -5.0151    0.5993   -0.5643 C   0  0  0  0  0  0  0  0  0  0  0  0
   -3.6040    1.1011   -0.2820 C   0  0  0  0  0  0  0  0  0  0  0  0
   -2.6953    0.0352   -0.4690 O   0  0  0  0  0  0  0  0  0  0  0  0
   -1.3609    0.4021   -0.2424 C   0  0  0  0  0  0  0  0  0  0  0  0
   -0.4855   -0.8054   -0.5760 C   0  0  0  0  0  0  0  0  0  0  0  0
    0.8716   -0.5918   -0.1982 O   0  0  0  0  0  0  0  0  0  0  0  0
    1.6066    0.1743   -0.9970 C   0  0  0  0  0  0  0  0  0  0  0  0
    1.2078    0.6930   -2.0124 O   0  0  0  0  0  0  0  0  0  0  0  0
    3.0459    0.3350   -0.5216 C   0  0  0  0  0  0  0  0  0  0  0  0
    3.7089    1.1924   -1.4189 O   0  0  0  0  0  0  0  0  0  0  0  0
    3.7188   -1.0519   -0.5035 C   0  0  0  0  0  0  0  0  0  0  0  0
    5.1433   -0.9338    0.0275 C   0  0  0  0  0  0  0  0  0  0  0  0
    5.1424   -0.3419    1.4325 C   0  0  0  0  0  0  0  0  0  0  0  0
    4.4857    1.0339    1.4134 C   0  0  0  0  0  0  0  0  0  0  0  0
    3.0546    0.9370    0.8954 C   0  0  0  0  0  0  0  0  0  0  0  0
   -7.1696   -1.6995    0.8880 H   0  0  0  0  0  0  0  0  0  0  0  0
   -6.8672   -1.4519   -0.8321 H   0  0  0  0  0  0  0  0  0  0  0  0
   -7.5891   -0.1623    0.1303 H   0  0  0  0  0  0  0  0  0  0  0  0
   -5.4773    0.0236    1.4555 H   0  0  0  0  0  0  0  0  0  0  0  0
   -4.7518   -1.2528    0.4743 H   0  0  0  0  0  0  0  0  0  0  0  0
   -5.0259    0.1505   -1.5584 H   0  0  0  0  0  0  0  0  0  0  0  0
   -5.6955    1.4530   -0.5634 H   0  0  0  0  0  0  0  0  0  0  0  0
   -3.3499    1.9278   -0.9638 H   0  0  0  0  0  0  0  0  0  0  0  0
   -3.5306    1.4779    0.7506 H   0  0  0  0  0  0  0  0  0  0  0  0
   -1.2077    0.6899    0.8111 H   0  0  0  0  0  0  0  0  0  0  0  0
   -1.0774    1.2546   -0.8781 H   0  0  0  0  0  0  0  0  0  0  0  0
   -0.5453   -1.0122   -1.6484 H   0  0  0  0  0  0  0  0  0  0  0  0
   -0.8216   -1.6743   -0.0090 H   0  0  0  0  0  0  0  0  0  0  0  0
    3.0843    1.4039   -2.1310 H   0  0  0  0  0  0  0  0  0  0  0  0
    3.7306   -1.4516   -1.5196 H   0  0  0  0  0  0  0  0  0  0  0  0
    3.1294   -1.7173    0.1290 H   0  0  0  0  0  0  0  0  0  0  0  0
    5.7098   -0.2813   -0.6383 H   0  0  0  0  0  0  0  0  0  0  0  0
    5.6137   -1.9188    0.0294 H   0  0  0  0  0  0  0  0  0  0  0  0
    4.5927   -1.0018    2.1084 H   0  0  0  0  0  0  0  0  0  0  0  0
    6.1666   -0.2590    1.8008 H   0  0  0  0  0  0  0  0  0  0  0  0
    4.4815    1.4675    2.4152 H   0  0  0  0  0  0  0  0  0  0  0  0
    5.0500    1.6938    0.7532 H   0  0  0  0  0  0  0  0  0  0  0  0
    2.4545    0.3014    1.5479 H   0  0  0  0  0  0  0  0  0  0  0  0
    2.6028    1.9305    0.8586 H   0  0  0  0  0  0  0  0  0  0  0  0
  1  2  1  0  0  0  0
  2  3  1  0  0  0  0
  3  4  1  0  0  0  0
  4  5  1  0  0  0  0
  5  6  1  0  0  0  0
  6  7  1  0  0  0  0
  7  8  1  0  0  0  0
  8  9  1  0  0  0  0
  9 10  2  0  0  0  0
  9 11  1  0  0  0  0
 11 12  1  0  0  0  0
 11 13  1  0  0  0  0
 13 14  1  0  0  0  0
 14 15  1  0  0  0  0
 15 16  1  0  0  0  0
 11 17  1  0  0  0  0
 16 17  1  0  0  0  0
  1 18  1  0  0  0  0
  1 19  1  0  0  0  0
  1 20  1  0  0  0  0
  2 21  1  0  0  0  0
  2 22  1  0  0  0  0
  3 23  1  0  0  0  0
  3 24  1  0  0  0  0
  4 25  1  0  0  0  0
  4 26  1  0  0  0  0
  6 27  1  0  0  0  0
  6 28  1  0  0  0  0
  7 29  1  0  0  0  0
  7 30  1  0  0  0  0
 12 31  1  0  0  0  0
 13 32  1  0  0  0  0
 13 33  1  0  0  0  0
 14 34  1  0  0  0  0
 14 35  1  0  0  0  0
 15 36  1  0  0  0  0
 15 37  1  0  0  0  0
 16 38  1  0  0  0  0
 16 39  1  0  0  0  0
 17 40  1  0  0  0  0
 17 41  1  0  0  0  0
M  END
