 xtb: 6.7.1 (edcfbbe)
          07082600173D

 30 29  0     0  0            999 V2000
    4.4758    1.1147    0.6968 C   0  0  0  0  0  0  0  0  0  0  0  0
    3.2244    0.5198    1.3307 C   0  0  0  0  0  0  0  0  0  0  0  0
    2.2675   -0.0346    0.2785 C   0  0  0  0  0  0  0  0  0  0  0  0
    1.0161   -0.6466    0.9181 C   0  0  0  0  0  0  0  0  0  0  0  0
    0.0759   -1.1657   -0.1261 C   0  0  0  0  0  0  0  0  0  0  0  0
   -0.8073   -0.1872   -0.8434 C   0  0  0  0  0  0  0  0  0  0  0  0
   -2.1843   -0.1305   -0.1707 C   0  0  0  0  0  0  0  0  0  0  0  0
   -3.1125    0.8633   -0.8628 C   0  0  0  0  0  0  0  0  0  0  0  0
   -4.4806    0.9136   -0.1939 C   0  0  0  0  0  0  0  0  0  0  0  0
    0.0860   -2.4165   -0.3196 N   0  0  0  0  0  0  0  0  0  0  0  0
   -0.7810   -2.9077   -1.3054 O   0  0  0  0  0  0  0  0  0  0  0  0
    4.2138    1.9272    0.0223 H   0  0  0  0  0  0  0  0  0  0  0  0
    5.1432    1.5055    1.4614 H   0  0  0  0  0  0  0  0  0  0  0  0
    5.0111    0.3579    0.1278 H   0  0  0  0  0  0  0  0  0  0  0  0
    3.5100   -0.2817    2.0152 H   0  0  0  0  0  0  0  0  0  0  0  0
    2.7133    1.2883    1.9155 H   0  0  0  0  0  0  0  0  0  0  0  0
    1.9788    0.7677   -0.4043 H   0  0  0  0  0  0  0  0  0  0  0  0
    2.7749   -0.8031   -0.3079 H   0  0  0  0  0  0  0  0  0  0  0  0
    0.5046    0.1128    1.5134 H   0  0  0  0  0  0  0  0  0  0  0  0
    1.3130   -1.4683    1.5707 H   0  0  0  0  0  0  0  0  0  0  0  0
   -0.9326   -0.5145   -1.8780 H   0  0  0  0  0  0  0  0  0  0  0  0
   -0.3535    0.8051   -0.8345 H   0  0  0  0  0  0  0  0  0  0  0  0
   -2.0639    0.1536    0.8781 H   0  0  0  0  0  0  0  0  0  0  0  0
   -2.6313   -1.1260   -0.1984 H   0  0  0  0  0  0  0  0  0  0  0  0
   -2.6603    1.8580   -0.8402 H   0  0  0  0  0  0  0  0  0  0  0  0
   -3.2304    0.5762   -1.9100 H   0  0  0  0  0  0  0  0  0  0  0  0
   -4.3858    1.2105    0.8485 H   0  0  0  0  0  0  0  0  0  0  0  0
   -5.1272    1.6289   -0.6970 H   0  0  0  0  0  0  0  0  0  0  0  0
   -4.9569   -0.0637   -0.2284 H   0  0  0  0  0  0  0  0  0  0  0  0
   -0.6007   -3.8571   -1.3145 H   0  0  0  0  0  0  0  0  0  0  0  0
  1  2  1  0  0  0  0
  2  3  1  0  0  0  0
  3  4  1  0  0  0  0
  4  5  1  0  0  0  0
  5  6  1  0  0  0  0
  6  7  1  0  0  0  0
  7  8  1  0  0  0  0
  8  9  1  0  0  0  0
  5 10  2  0  0  0  0
 10 11  1  0  0  0  0
  1 12  1  0  0  0  0
  1 13  1  0  0  0  0
  1 14  1  0  0  0  0
  2 15  1  0  0  0  0
  2 16  1  0  0  0  0
  3 17  1  0  0  0  0
  3 18  1  0  0  0  0
  4 19  1  0  0  0  0
  4 20  1  0  0  0  0
  6 21  1  0  0  0  0
  6 22  1  0  0  0  0
  7 23  1  0  0  0  0
  7 24  1  0  0  0  0
  8 25  1  0  0  0  0
  8 26  1  0  0  0  0
  9 27  1  0  0  0  0
  9 28  1  0  0  0  0
  9 29  1  0  0  0  0
 11 30  1  0  0  0  0
M  END
