 xtb: 6.7.1 (edcfbbe)
          07092614343D

 26 26  0     0  0            999 V2000
    3.3828    1.3629    0.4774 C   0  0  0  0  0  0  0  0  0  0  0  0
    2.7591    0.4083   -0.5228 C   0  0  0  0  0  0  0  0  0  0  0  0
    1.6274   -0.2137    0.0915 O   0  0  0  0  0  0  0  0  0  0  0  0
    0.8738   -0.9844   -0.6914 C   0  0  0  0  0  0  0  0  0  0  0  0
    1.1229   -1.2162   -1.8455 O   0  0  0  0  0  0  0  0  0  0  0  0
   -0.3394   -1.4850    0.0528 C   0  0  0  0  0  0  0  0  0  0  0  0
   -1.5536   -0.5769   -0.3126 C   0  0  0  0  0  0  0  0  0  0  0  0
   -2.0745   -0.9074   -1.7036 C   0  0  0  0  0  0  0  0  0  0  0  0
   -2.5812   -0.7469    0.6414 O   0  0  0  0  0  0  0  0  0  0  0  0
   -2.3881    0.2021    1.6697 C   0  0  0  0  0  0  0  0  0  0  0  0
   -1.3454    1.1864    1.0974 C   0  0  0  0  0  0  0  0  0  0  0  0
   -1.1965    0.7841   -0.2451 O   0  0  0  0  0  0  0  0  0  0  0  0
    2.6628    2.1244    0.7651 H   0  0  0  0  0  0  0  0  0  0  0  0
    4.2486    1.8436    0.0315 H   0  0  0  0  0  0  0  0  0  0  0  0
    3.6951    0.8233    1.3676 H   0  0  0  0  0  0  0  0  0  0  0  0
    3.4663   -0.3717   -0.8267 H   0  0  0  0  0  0  0  0  0  0  0  0
    2.4226    0.9338   -1.4228 H   0  0  0  0  0  0  0  0  0  0  0  0
   -0.5709   -2.5068   -0.2413 H   0  0  0  0  0  0  0  0  0  0  0  0
   -0.1560   -1.4339    1.1252 H   0  0  0  0  0  0  0  0  0  0  0  0
   -2.7855   -0.1455   -2.0090 H   0  0  0  0  0  0  0  0  0  0  0  0
   -2.5701   -1.8726   -1.6747 H   0  0  0  0  0  0  0  0  0  0  0  0
   -1.2459   -0.9358   -2.4043 H   0  0  0  0  0  0  0  0  0  0  0  0
   -2.0289   -0.2867    2.5828 H   0  0  0  0  0  0  0  0  0  0  0  0
   -3.3501    0.6792    1.8721 H   0  0  0  0  0  0  0  0  0  0  0  0
   -0.3891    1.1128    1.6302 H   0  0  0  0  0  0  0  0  0  0  0  0
   -1.6863    2.2226    1.1005 H   0  0  0  0  0  0  0  0  0  0  0  0
  1  2  1  0  0  0  0
  2  3  1  0  0  0  0
  3  4  1  0  0  0  0
  4  5  2  0  0  0  0
  4  6  1  0  0  0  0
  6  7  1  0  0  0  0
  7  8  1  0  0  0  0
  7  9  1  0  0  0  0
  9 10  1  0  0  0  0
 10 11  1  0  0  0  0
  7 12  1  0  0  0  0
 11 12  1  0  0  0  0
  1 13  1  0  0  0  0
  1 14  1  0  0  0  0
  1 15  1  0  0  0  0
  2 16  1  0  0  0  0
  2 17  1  0  0  0  0
  6 18  1  0  0  0  0
  6 19  1  0  0  0  0
  8 20  1  0  0  0  0
  8 21  1  0  0  0  0
  8 22  1  0  0  0  0
 10 23  1  0  0  0  0
 10 24  1  0  0  0  0
 11 25  1  0  0  0  0
 11 26  1  0  0  0  0
M  END
