 xtb: 6.7.1 (edcfbbe)
          07082617353D

 14 13  0     0  0            999 V2000
    1.6049    0.6362    0.5029 C   0  0  0  0  0  0  0  0  0  0  0  0
    0.8469   -0.4708   -0.1679 C   0  0  0  0  0  0  0  0  0  0  0  0
    1.2638   -1.5996   -0.2698 O   0  0  0  0  0  0  0  0  0  0  0  0
   -0.5385   -0.1299   -0.7077 C   0  0  0  0  0  0  0  0  0  0  0  0
   -1.4652    0.2715    0.4510 C   0  0  0  0  0  0  0  0  0  0  0  0
   -1.0581   -1.2256   -1.4084 O   0  0  0  0  0  0  0  0  0  0  0  0
    1.2878    0.6910    1.5434 H   0  0  0  0  0  0  0  0  0  0  0  0
    1.4090    1.5939    0.0304 H   0  0  0  0  0  0  0  0  0  0  0  0
    2.6691    0.4154    0.4864 H   0  0  0  0  0  0  0  0  0  0  0  0
   -0.4511    0.7138   -1.4078 H   0  0  0  0  0  0  0  0  0  0  0  0
   -1.1393    1.2028    0.9040 H   0  0  0  0  0  0  0  0  0  0  0  0
   -1.4826   -0.5138    1.2033 H   0  0  0  0  0  0  0  0  0  0  0  0
   -2.4716    0.3966    0.0615 H   0  0  0  0  0  0  0  0  0  0  0  0
   -0.4751   -1.9815   -1.2214 H   0  0  0  0  0  0  0  0  0  0  0  0
  1  2  1  0  0  0  0
  2  3  2  0  0  0  0
  2  4  1  0  0  0  0
  4  5  1  0  0  0  0
  4  6  1  0  0  0  0
  1  7  1  0  0  0  0
  1  8  1  0  0  0  0
  1  9  1  0  0  0  0
  4 10  1  0  0  0  0
  5 11  1  0  0  0  0
  5 12  1  0  0  0  0
  5 13  1  0  0  0  0
  6 14  1  0  0  0  0
M  END
