 xtb: 6.7.1 (edcfbbe)
          07072621353D

 26 27  0     0  0            999 V2000
    3.3067    0.2423    0.6735 C   0  0  0  0  0  0  0  0  0  0  0  0
    1.8928    0.7888    0.7474 C   0  0  0  0  0  0  0  0  0  0  0  0
    1.6263    1.7186    1.4796 O   0  0  0  0  0  0  0  0  0  0  0  0
    0.9625    0.1920   -0.0572 N   0  0  0  0  0  0  0  0  0  0  0  0
    1.1665   -1.0696   -0.7411 C   0  0  0  0  0  0  0  0  0  0  0  0
    0.3100   -2.1365   -0.0620 C   0  0  0  0  0  0  0  0  0  0  0  0
   -1.1569   -1.7922   -0.2912 C   0  0  0  0  0  0  0  0  0  0  0  0
   -1.4171   -0.3129   -0.1709 C   0  0  0  0  0  0  0  0  0  0  0  0
   -2.7313    0.1370   -0.1968 C   0  0  0  0  0  0  0  0  0  0  0  0
   -3.0339    1.4822   -0.1182 C   0  0  0  0  0  0  0  0  0  0  0  0
   -2.0065    2.4057   -0.0263 C   0  0  0  0  0  0  0  0  0  0  0  0
   -0.6928    1.9809   -0.0065 C   0  0  0  0  0  0  0  0  0  0  0  0
   -0.3859    0.6238   -0.0634 C   0  0  0  0  0  0  0  0  0  0  0  0
    3.9342    0.8885    1.2820 H   0  0  0  0  0  0  0  0  0  0  0  0
    3.6791    0.2480   -0.3484 H   0  0  0  0  0  0  0  0  0  0  0  0
    3.3590   -0.7672    1.0759 H   0  0  0  0  0  0  0  0  0  0  0  0
    0.8506   -0.9540   -1.7846 H   0  0  0  0  0  0  0  0  0  0  0  0
    2.2164   -1.3489   -0.7293 H   0  0  0  0  0  0  0  0  0  0  0  0
    0.5399   -3.1247   -0.4626 H   0  0  0  0  0  0  0  0  0  0  0  0
    0.5348   -2.1385    1.0066 H   0  0  0  0  0  0  0  0  0  0  0  0
   -1.4524   -2.1107   -1.2967 H   0  0  0  0  0  0  0  0  0  0  0  0
   -1.7906   -2.3322    0.4157 H   0  0  0  0  0  0  0  0  0  0  0  0
   -3.5263   -0.5913   -0.2774 H   0  0  0  0  0  0  0  0  0  0  0  0
   -4.0632    1.8078   -0.1333 H   0  0  0  0  0  0  0  0  0  0  0  0
   -2.2262    3.4613    0.0238 H   0  0  0  0  0  0  0  0  0  0  0  0
    0.1042    2.7016    0.0615 H   0  0  0  0  0  0  0  0  0  0  0  0
  1  2  1  0  0  0  0
  2  3  2  0  0  0  0
  2  4  1  0  0  0  0
  4  5  1  0  0  0  0
  5  6  1  0  0  0  0
  6  7  1  0  0  0  0
  7  8  1  0  0  0  0
  8  9  4  0  0  0  0
  9 10  4  0  0  0  0
 10 11  4  0  0  0  0
 11 12  4  0  0  0  0
  4 13  1  0  0  0  0
  8 13  4  0  0  0  0
 12 13  4  0  0  0  0
  1 14  1  0  0  0  0
  1 15  1  0  0  0  0
  1 16  1  0  0  0  0
  5 17  1  0  0  0  0
  5 18  1  0  0  0  0
  6 19  1  0  0  0  0
  6 20  1  0  0  0  0
  7 21  1  0  0  0  0
  7 22  1  0  0  0  0
  9 23  1  0  0  0  0
 10 24  1  0  0  0  0
 11 25  1  0  0  0  0
 12 26  1  0  0  0  0
M  END
