 xtb: 6.7.1 (edcfbbe)
          07062622313D

 36 37  0     0  0            999 V2000
   -3.1689    1.5610    1.5441 C   0  0  0  0  0  0  0  0  0  0  0  0
   -2.8494    0.3673    0.6563 C   0  0  0  0  0  0  0  0  0  0  0  0
   -2.0540   -0.7135    1.4498 C   0  0  0  0  0  0  0  0  0  0  0  0
   -0.6250   -0.2421    1.5804 C   0  0  0  0  0  0  0  0  0  0  0  0
   -0.2410    0.5592    2.3924 O   0  0  0  0  0  0  0  0  0  0  0  0
    0.1436   -0.8109    0.6559 O   0  0  0  0  0  0  0  0  0  0  0  0
    1.5049   -0.3627    0.5601 C   0  0  0  0  0  0  0  0  0  0  0  0
    1.5796    0.8820   -0.3217 C   0  0  0  0  0  0  0  0  0  0  0  0
    3.0307    1.3232   -0.4811 C   0  0  0  0  0  0  0  0  0  0  0  0
    3.8726    0.1941   -1.0685 C   0  0  0  0  0  0  0  0  0  0  0  0
    3.7868   -1.0493   -0.1879 C   0  0  0  0  0  0  0  0  0  0  0  0
    2.3362   -1.4960   -0.0293 C   0  0  0  0  0  0  0  0  0  0  0  0
   -4.0433   -0.1916    0.1480 O   0  0  0  0  0  0  0  0  0  0  0  0
   -3.7721   -0.7112   -1.1368 C   0  0  0  0  0  0  0  0  0  0  0  0
   -2.3915   -0.1270   -1.5069 C   0  0  0  0  0  0  0  0  0  0  0  0
   -2.1226    0.7925   -0.4737 O   0  0  0  0  0  0  0  0  0  0  0  0
   -2.2679    1.8812    2.0579 H   0  0  0  0  0  0  0  0  0  0  0  0
   -3.5476    2.3724    0.9297 H   0  0  0  0  0  0  0  0  0  0  0  0
   -3.9257    1.2713    2.2661 H   0  0  0  0  0  0  0  0  0  0  0  0
   -2.0795   -1.6581    0.9082 H   0  0  0  0  0  0  0  0  0  0  0  0
   -2.5090   -0.8295    2.4313 H   0  0  0  0  0  0  0  0  0  0  0  0
    1.8527   -0.1167    1.5718 H   0  0  0  0  0  0  0  0  0  0  0  0
    1.1472    0.6466   -1.2968 H   0  0  0  0  0  0  0  0  0  0  0  0
    0.9814    1.6762    0.1277 H   0  0  0  0  0  0  0  0  0  0  0  0
    3.4308    1.6053    0.4950 H   0  0  0  0  0  0  0  0  0  0  0  0
    3.0765    2.2002   -1.1288 H   0  0  0  0  0  0  0  0  0  0  0  0
    3.5096   -0.0457   -2.0703 H   0  0  0  0  0  0  0  0  0  0  0  0
    4.9127    0.5137   -1.1565 H   0  0  0  0  0  0  0  0  0  0  0  0
    4.2050   -0.8259    0.7959 H   0  0  0  0  0  0  0  0  0  0  0  0
    4.3728   -1.8594   -0.6257 H   0  0  0  0  0  0  0  0  0  0  0  0
    2.2743   -2.3719    0.6190 H   0  0  0  0  0  0  0  0  0  0  0  0
    1.9197   -1.7651   -1.0020 H   0  0  0  0  0  0  0  0  0  0  0  0
   -3.7581   -1.8072   -1.1150 H   0  0  0  0  0  0  0  0  0  0  0  0
   -4.5648   -0.3752   -1.8100 H   0  0  0  0  0  0  0  0  0  0  0  0
   -2.3958    0.4208   -2.4502 H   0  0  0  0  0  0  0  0  0  0  0  0
   -1.6211   -0.9078   -1.5383 H   0  0  0  0  0  0  0  0  0  0  0  0
  1  2  1  0  0  0  0
  2  3  1  0  0  0  0
  3  4  1  0  0  0  0
  4  5  2  0  0  0  0
  4  6  1  0  0  0  0
  6  7  1  0  0  0  0
  7  8  1  0  0  0  0
  8  9  1  0  0  0  0
  9 10  1  0  0  0  0
 10 11  1  0  0  0  0
  7 12  1  0  0  0  0
 11 12  1  0  0  0  0
  2 13  1  0  0  0  0
 13 14  1  0  0  0  0
 14 15  1  0  0  0  0
  2 16  1  0  0  0  0
 15 16  1  0  0  0  0
  1 17  1  0  0  0  0
  1 18  1  0  0  0  0
  1 19  1  0  0  0  0
  3 20  1  0  0  0  0
  3 21  1  0  0  0  0
  7 22  1  0  0  0  0
  8 23  1  0  0  0  0
  8 24  1  0  0  0  0
  9 25  1  0  0  0  0
  9 26  1  0  0  0  0
 10 27  1  0  0  0  0
 10 28  1  0  0  0  0
 11 29  1  0  0  0  0
 11 30  1  0  0  0  0
 12 31  1  0  0  0  0
 12 32  1  0  0  0  0
 14 33  1  0  0  0  0
 14 34  1  0  0  0  0
 15 35  1  0  0  0  0
 15 36  1  0  0  0  0
M  END
