 xtb: 6.7.1 (edcfbbe)
          07092603543D

 19 18  0     0  0            999 V2000
   -0.2659   -0.4889   -1.3104 O   0  0  0  0  0  0  0  0  0  0  0  0
   -0.1089   -0.6146   -0.1226 C   0  0  0  0  0  0  0  0  0  0  0  0
    1.0831   -0.7535    0.4987 N   0  0  0  0  0  0  0  0  0  0  0  0
    2.3271   -0.5502   -0.1987 C   0  0  0  0  0  0  0  0  0  0  0  0
    2.8846    0.8534    0.0113 C   0  0  0  0  0  0  0  0  0  0  0  0
    3.2508    1.1192    1.7406 Cl  0  0  0  0  0  0  0  0  0  0  0  0
   -1.1183   -0.6784    0.7835 O   0  0  0  0  0  0  0  0  0  0  0  0
   -2.4344   -0.6398    0.2497 C   0  0  0  0  0  0  0  0  0  0  0  0
   -2.8195    0.7801   -0.1523 C   0  0  0  0  0  0  0  0  0  0  0  0
   -4.5387    0.8253   -0.5897 Cl  0  0  0  0  0  0  0  0  0  0  0  0
    1.0947   -0.7290    1.5069 H   0  0  0  0  0  0  0  0  0  0  0  0
    2.1227   -0.6932   -1.2633 H   0  0  0  0  0  0  0  0  0  0  0  0
    3.0515   -1.2957    0.1392 H   0  0  0  0  0  0  0  0  0  0  0  0
    3.8137    0.9912   -0.5395 H   0  0  0  0  0  0  0  0  0  0  0  0
    2.1567    1.6094   -0.2813 H   0  0  0  0  0  0  0  0  0  0  0  0
   -2.5006   -1.3020   -0.6199 H   0  0  0  0  0  0  0  0  0  0  0  0
   -3.0822   -1.0049    1.0490 H   0  0  0  0  0  0  0  0  0  0  0  0
   -2.2457    1.1015   -1.0216 H   0  0  0  0  0  0  0  0  0  0  0  0
   -2.6706    1.4699    0.6794 H   0  0  0  0  0  0  0  0  0  0  0  0
  1  2  2  0  0  0  0
  2  3  4  0  0  0  0
  3  4  1  0  0  0  0
  4  5  1  0  0  0  0
  5  6  1  0  0  0  0
  2  7  1  0  0  0  0
  7  8  1  0  0  0  0
  8  9  1  0  0  0  0
  9 10  1  0  0  0  0
  3 11  1  0  0  0  0
  4 12  1  0  0  0  0
  4 13  1  0  0  0  0
  5 14  1  0  0  0  0
  5 15  1  0  0  0  0
  8 16  1  0  0  0  0
  8 17  1  0  0  0  0
  9 18  1  0  0  0  0
  9 19  1  0  0  0  0
M  END
