 xtb: 6.7.1 (edcfbbe)
          07072605303D

 27 27  0     0  0            999 V2000
    2.8504   -1.5186   -0.9514 C   0  0  0  0  0  0  0  0  0  0  0  0
    2.9415   -0.4110    0.0863 C   0  0  0  0  0  0  0  0  0  0  0  0
    1.6266   -0.0132    0.4842 O   0  0  0  0  0  0  0  0  0  0  0  0
    1.2337    1.2267    0.1874 C   0  0  0  0  0  0  0  0  0  0  0  0
    1.9366    2.0858   -0.2757 O   0  0  0  0  0  0  0  0  0  0  0  0
   -0.1879    1.4389    0.5967 C   0  0  0  0  0  0  0  0  0  0  0  0
   -0.4978    2.5290    1.3992 C   0  0  0  0  0  0  0  0  0  0  0  0
   -1.7957    2.7247    1.8376 C   0  0  0  0  0  0  0  0  0  0  0  0
   -2.7921    1.8312    1.4775 C   0  0  0  0  0  0  0  0  0  0  0  0
   -2.4964    0.7528    0.6632 C   0  0  0  0  0  0  0  0  0  0  0  0
   -1.1965    0.5521    0.2115 C   0  0  0  0  0  0  0  0  0  0  0  0
   -0.8986   -0.5409   -0.7510 C   0  0  0  0  0  0  0  0  0  0  0  0
   -0.1279   -0.4524   -1.6730 O   0  0  0  0  0  0  0  0  0  0  0  0
   -1.6243   -1.6371   -0.4980 O   0  0  0  0  0  0  0  0  0  0  0  0
   -1.4217   -2.7303   -1.3813 C   0  0  0  0  0  0  0  0  0  0  0  0
    3.8440   -1.7613   -1.3176 H   0  0  0  0  0  0  0  0  0  0  0  0
    2.4045   -2.4089   -0.5142 H   0  0  0  0  0  0  0  0  0  0  0  0
    2.2303   -1.1881   -1.7810 H   0  0  0  0  0  0  0  0  0  0  0  0
    3.4604    0.4630   -0.3194 H   0  0  0  0  0  0  0  0  0  0  0  0
    3.4527   -0.7554    0.9902 H   0  0  0  0  0  0  0  0  0  0  0  0
    0.2889    3.2143    1.6759 H   0  0  0  0  0  0  0  0  0  0  0  0
   -2.0301    3.5738    2.4617 H   0  0  0  0  0  0  0  0  0  0  0  0
   -3.8037    1.9809    1.8238 H   0  0  0  0  0  0  0  0  0  0  0  0
   -3.2709    0.0650    0.3606 H   0  0  0  0  0  0  0  0  0  0  0  0
   -1.6194   -2.4280   -2.4119 H   0  0  0  0  0  0  0  0  0  0  0  0
   -0.3917   -3.0860   -1.3124 H   0  0  0  0  0  0  0  0  0  0  0  0
   -2.1149   -3.5070   -1.0688 H   0  0  0  0  0  0  0  0  0  0  0  0
  1  2  1  0  0  0  0
  2  3  1  0  0  0  0
  3  4  1  0  0  0  0
  4  5  2  0  0  0  0
  4  6  1  0  0  0  0
  6  7  4  0  0  0  0
  7  8  4  0  0  0  0
  8  9  4  0  0  0  0
  9 10  4  0  0  0  0
  6 11  4  0  0  0  0
 10 11  4  0  0  0  0
 11 12  1  0  0  0  0
 12 13  2  0  0  0  0
 12 14  1  0  0  0  0
 14 15  1  0  0  0  0
  1 16  1  0  0  0  0
  1 17  1  0  0  0  0
  1 18  1  0  0  0  0
  2 19  1  0  0  0  0
  2 20  1  0  0  0  0
  7 21  1  0  0  0  0
  8 22  1  0  0  0  0
  9 23  1  0  0  0  0
 10 24  1  0  0  0  0
 15 25  1  0  0  0  0
 15 26  1  0  0  0  0
 15 27  1  0  0  0  0
M  END
