 xtb: 6.7.1 (edcfbbe)
          07092608533D

 30 29  0     0  0            999 V2000
   -5.1039   -0.3746   -0.0802 C   0  0  0  0  0  0  0  0  0  0  0  0
   -3.7364   -0.7537    0.4746 C   0  0  0  0  0  0  0  0  0  0  0  0
   -2.6202    0.0905   -0.1359 C   0  0  0  0  0  0  0  0  0  0  0  0
   -1.2483   -0.2820    0.4204 C   0  0  0  0  0  0  0  0  0  0  0  0
   -0.1314    0.5579   -0.1945 C   0  0  0  0  0  0  0  0  0  0  0  0
    1.2373    0.2008    0.3806 C   0  0  0  0  0  0  0  0  0  0  0  0
    2.3499    1.0310   -0.2575 C   0  0  0  0  0  0  0  0  0  0  0  0
    3.7157    0.8296    0.3996 C   0  0  0  0  0  0  0  0  0  0  0  0
    4.2768   -0.5865    0.2072 C   0  0  0  0  0  0  0  0  0  0  0  0
    4.4304   -0.9039   -1.1891 C   0  0  0  0  0  0  0  0  0  0  0  0
    4.5508   -1.1472   -2.2997 N   0  0  0  0  0  0  0  0  0  0  0  0
   -5.1308   -0.5172   -1.1583 H   0  0  0  0  0  0  0  0  0  0  0  0
   -5.3255    0.6693    0.1316 H   0  0  0  0  0  0  0  0  0  0  0  0
   -5.8827   -0.9882    0.3668 H   0  0  0  0  0  0  0  0  0  0  0  0
   -3.7358   -0.6216    1.5592 H   0  0  0  0  0  0  0  0  0  0  0  0
   -3.5421   -1.8092    0.2705 H   0  0  0  0  0  0  0  0  0  0  0  0
   -2.8165    1.1465    0.0648 H   0  0  0  0  0  0  0  0  0  0  0  0
   -2.6185   -0.0442   -1.2201 H   0  0  0  0  0  0  0  0  0  0  0  0
   -1.2497   -0.1433    1.5046 H   0  0  0  0  0  0  0  0  0  0  0  0
   -1.0551   -1.3394    0.2238 H   0  0  0  0  0  0  0  0  0  0  0  0
   -0.1171    0.4046   -1.2760 H   0  0  0  0  0  0  0  0  0  0  0  0
   -0.3347    1.6162   -0.0138 H   0  0  0  0  0  0  0  0  0  0  0  0
    1.2295    0.3723    1.4605 H   0  0  0  0  0  0  0  0  0  0  0  0
    1.4193   -0.8624    0.2107 H   0  0  0  0  0  0  0  0  0  0  0  0
    2.0860    2.0886   -0.1791 H   0  0  0  0  0  0  0  0  0  0  0  0
    2.4214    0.7867   -1.3199 H   0  0  0  0  0  0  0  0  0  0  0  0
    3.6393    1.0280    1.4713 H   0  0  0  0  0  0  0  0  0  0  0  0
    4.4219    1.5470   -0.0253 H   0  0  0  0  0  0  0  0  0  0  0  0
    3.6130   -1.3274    0.6597 H   0  0  0  0  0  0  0  0  0  0  0  0
    5.2574   -0.6682    0.6853 H   0  0  0  0  0  0  0  0  0  0  0  0
  1  2  1  0  0  0  0
  2  3  1  0  0  0  0
  3  4  1  0  0  0  0
  4  5  1  0  0  0  0
  5  6  1  0  0  0  0
  6  7  1  0  0  0  0
  7  8  1  0  0  0  0
  8  9  1  0  0  0  0
  9 10  1  0  0  0  0
 10 11  3  0  0  0  0
  1 12  1  0  0  0  0
  1 13  1  0  0  0  0
  1 14  1  0  0  0  0
  2 15  1  0  0  0  0
  2 16  1  0  0  0  0
  3 17  1  0  0  0  0
  3 18  1  0  0  0  0
  4 19  1  0  0  0  0
  4 20  1  0  0  0  0
  5 21  1  0  0  0  0
  5 22  1  0  0  0  0
  6 23  1  0  0  0  0
  6 24  1  0  0  0  0
  7 25  1  0  0  0  0
  7 26  1  0  0  0  0
  8 27  1  0  0  0  0
  8 28  1  0  0  0  0
  9 29  1  0  0  0  0
  9 30  1  0  0  0  0
M  END
