 xtb: 6.7.1 (edcfbbe)
          07092615393D

 24 24  0     0  0            999 V2000
    4.0056    0.5387   -0.1326 C   0  0  0  0  0  0  0  0  0  0  0  0
    2.9327   -0.4386    0.3092 C   0  0  0  0  0  0  0  0  0  0  0  0
    1.6615    0.0949   -0.0538 O   0  0  0  0  0  0  0  0  0  0  0  0
    0.5914   -0.6324    0.3091 C   0  0  0  0  0  0  0  0  0  0  0  0
    0.7009   -1.6764    0.9083 O   0  0  0  0  0  0  0  0  0  0  0  0
   -0.6810    0.0017   -0.1115 C   0  0  0  0  0  0  0  0  0  0  0  0
   -0.6368    1.0953   -0.9777 C   0  0  0  0  0  0  0  0  0  0  0  0
   -1.7956    1.7147   -1.3984 C   0  0  0  0  0  0  0  0  0  0  0  0
   -3.0206    1.2461   -0.9518 C   0  0  0  0  0  0  0  0  0  0  0  0
   -3.0727    0.1638   -0.0939 C   0  0  0  0  0  0  0  0  0  0  0  0
   -1.9193   -0.4805    0.3406 C   0  0  0  0  0  0  0  0  0  0  0  0
   -2.0350   -1.6469    1.2655 C   0  0  0  0  0  0  0  0  0  0  0  0
    3.9671    0.6761   -1.2099 H   0  0  0  0  0  0  0  0  0  0  0  0
    4.9840    0.1556    0.1422 H   0  0  0  0  0  0  0  0  0  0  0  0
    3.8531    1.5024    0.3462 H   0  0  0  0  0  0  0  0  0  0  0  0
    2.9554   -0.5934    1.3942 H   0  0  0  0  0  0  0  0  0  0  0  0
    3.0586   -1.4152   -0.1727 H   0  0  0  0  0  0  0  0  0  0  0  0
    0.3225    1.4507   -1.3192 H   0  0  0  0  0  0  0  0  0  0  0  0
   -1.7462    2.5582   -2.0705 H   0  0  0  0  0  0  0  0  0  0  0  0
   -3.9347    1.7240   -1.2728 H   0  0  0  0  0  0  0  0  0  0  0  0
   -4.0323   -0.1954    0.2498 H   0  0  0  0  0  0  0  0  0  0  0  0
   -1.4469   -1.4833    2.1664 H   0  0  0  0  0  0  0  0  0  0  0  0
   -1.6382   -2.5435    0.7931 H   0  0  0  0  0  0  0  0  0  0  0  0
   -3.0735   -1.8167    1.5404 H   0  0  0  0  0  0  0  0  0  0  0  0
  1  2  1  0  0  0  0
  2  3  1  0  0  0  0
  3  4  1  0  0  0  0
  4  5  2  0  0  0  0
  4  6  1  0  0  0  0
  6  7  4  0  0  0  0
  7  8  4  0  0  0  0
  8  9  4  0  0  0  0
  9 10  4  0  0  0  0
  6 11  4  0  0  0  0
 10 11  4  0  0  0  0
 11 12  1  0  0  0  0
  1 13  1  0  0  0  0
  1 14  1  0  0  0  0
  1 15  1  0  0  0  0
  2 16  1  0  0  0  0
  2 17  1  0  0  0  0
  7 18  1  0  0  0  0
  8 19  1  0  0  0  0
  9 20  1  0  0  0  0
 10 21  1  0  0  0  0
 12 22  1  0  0  0  0
 12 23  1  0  0  0  0
 12 24  1  0  0  0  0
M  END
