 xtb: 6.7.1 (edcfbbe)
          07072611463D

 39 38  0     0  0            999 V2000
   -5.9570   -1.5092   -0.3487 C   0  0  0  0  0  0  0  0  0  0  0  0
   -5.8644   -0.0384   -0.7389 C   0  0  0  0  0  0  0  0  0  0  0  0
   -4.6735    0.6802   -0.1037 C   0  0  0  0  0  0  0  0  0  0  0  0
   -3.3234    0.1930   -0.6255 C   0  0  0  0  0  0  0  0  0  0  0  0
   -2.1700    1.0052   -0.0427 C   0  0  0  0  0  0  0  0  0  0  0  0
   -0.8162    0.5113   -0.5440 C   0  0  0  0  0  0  0  0  0  0  0  0
    0.3261    1.3987   -0.0103 C   0  0  0  0  0  0  0  0  0  0  0  0
    0.2212    2.7194   -0.4631 O   0  0  0  0  0  0  0  0  0  0  0  0
    1.6511    0.8118   -0.4746 C   0  0  0  0  0  0  0  0  0  0  0  0
    2.3154    1.3390   -1.3335 O   0  0  0  0  0  0  0  0  0  0  0  0
    1.9438   -0.3301    0.1306 O   0  0  0  0  0  0  0  0  0  0  0  0
    3.1636   -0.9773   -0.2468 C   0  0  0  0  0  0  0  0  0  0  0  0
    4.3515   -0.4162    0.5288 C   0  0  0  0  0  0  0  0  0  0  0  0
    5.6392   -1.1662    0.1993 C   0  0  0  0  0  0  0  0  0  0  0  0
    6.8232   -0.6080    0.9792 C   0  0  0  0  0  0  0  0  0  0  0  0
   -5.9831   -1.6141    0.7339 H   0  0  0  0  0  0  0  0  0  0  0  0
   -5.1066   -2.0690   -0.7290 H   0  0  0  0  0  0  0  0  0  0  0  0
   -6.8627   -1.9518   -0.7574 H   0  0  0  0  0  0  0  0  0  0  0  0
   -6.7815    0.4662   -0.4257 H   0  0  0  0  0  0  0  0  0  0  0  0
   -5.7973    0.0448   -1.8260 H   0  0  0  0  0  0  0  0  0  0  0  0
   -4.7604    1.7500   -0.3084 H   0  0  0  0  0  0  0  0  0  0  0  0
   -4.7107    0.5485    0.9801 H   0  0  0  0  0  0  0  0  0  0  0  0
   -3.1836   -0.8579   -0.3657 H   0  0  0  0  0  0  0  0  0  0  0  0
   -3.3091    0.2727   -1.7150 H   0  0  0  0  0  0  0  0  0  0  0  0
   -2.2800    2.0560   -0.3152 H   0  0  0  0  0  0  0  0  0  0  0  0
   -2.1935    0.9403    1.0473 H   0  0  0  0  0  0  0  0  0  0  0  0
   -0.6412   -0.5157   -0.2193 H   0  0  0  0  0  0  0  0  0  0  0  0
   -0.7974    0.5401   -1.6361 H   0  0  0  0  0  0  0  0  0  0  0  0
    0.2944    1.4079    1.0857 H   0  0  0  0  0  0  0  0  0  0  0  0
    0.8385    2.8165   -1.2061 H   0  0  0  0  0  0  0  0  0  0  0  0
    3.0092   -2.0338   -0.0177 H   0  0  0  0  0  0  0  0  0  0  0  0
    3.3177   -0.8478   -1.3229 H   0  0  0  0  0  0  0  0  0  0  0  0
    4.1414   -0.4907    1.5980 H   0  0  0  0  0  0  0  0  0  0  0  0
    4.4669    0.6402    0.2781 H   0  0  0  0  0  0  0  0  0  0  0  0
    5.5124   -2.2248    0.4368 H   0  0  0  0  0  0  0  0  0  0  0  0
    5.8383   -1.0867   -0.8713 H   0  0  0  0  0  0  0  0  0  0  0  0
    6.6504   -0.6947    2.0496 H   0  0  0  0  0  0  0  0  0  0  0  0
    6.9751    0.4420    0.7408 H   0  0  0  0  0  0  0  0  0  0  0  0
    7.7320   -1.1514    0.7330 H   0  0  0  0  0  0  0  0  0  0  0  0
  1  2  1  0  0  0  0
  2  3  1  0  0  0  0
  3  4  1  0  0  0  0
  4  5  1  0  0  0  0
  5  6  1  0  0  0  0
  6  7  1  0  0  0  0
  7  8  1  0  0  0  0
  7  9  1  0  0  0  0
  9 10  2  0  0  0  0
  9 11  1  0  0  0  0
 11 12  1  0  0  0  0
 12 13  1  0  0  0  0
 13 14  1  0  0  0  0
 14 15  1  0  0  0  0
  1 16  1  0  0  0  0
  1 17  1  0  0  0  0
  1 18  1  0  0  0  0
  2 19  1  0  0  0  0
  2 20  1  0  0  0  0
  3 21  1  0  0  0  0
  3 22  1  0  0  0  0
  4 23  1  0  0  0  0
  4 24  1  0  0  0  0
  5 25  1  0  0  0  0
  5 26  1  0  0  0  0
  6 27  1  0  0  0  0
  6 28  1  0  0  0  0
  7 29  1  0  0  0  0
  8 30  1  0  0  0  0
 12 31  1  0  0  0  0
 12 32  1  0  0  0  0
 13 33  1  0  0  0  0
 13 34  1  0  0  0  0
 14 35  1  0  0  0  0
 14 36  1  0  0  0  0
 15 37  1  0  0  0  0
 15 38  1  0  0  0  0
 15 39  1  0  0  0  0
M  END
