 xtb: 6.7.1 (edcfbbe)
          07092619363D

 29 29  0     0  0            999 V2000
   -3.4670   -0.0594   -0.8551 C   0  0  0  0  0  0  0  0  0  0  0  0
   -2.0252    0.0710   -0.4680 C   0  0  0  0  0  0  0  0  0  0  0  0
   -1.2836    1.1137   -0.8096 C   0  0  0  0  0  0  0  0  0  0  0  0
    0.1663    1.2900   -0.4650 C   0  0  0  0  0  0  0  0  0  0  0  0
    0.9387    1.8073   -1.6797 C   0  0  0  0  0  0  0  0  0  0  0  0
    0.7813   -0.0240    0.0489 C   0  0  0  0  0  0  0  0  0  0  0  0
    2.0981    0.2605    0.6832 C   0  0  0  0  0  0  0  0  0  0  0  0
    3.1543   -0.2276    0.2004 N   0  0  0  0  0  0  0  0  0  0  0  0
    4.3362    0.1090    0.8654 O   0  0  0  0  0  0  0  0  0  0  0  0
   -0.1709   -0.6918    1.0535 C   0  0  0  0  0  0  0  0  0  0  0  0
    0.4663   -1.9234    1.6906 C   0  0  0  0  0  0  0  0  0  0  0  0
   -1.4636   -1.0700    0.3323 C   0  0  0  0  0  0  0  0  0  0  0  0
   -3.7799    0.7676   -1.4869 H   0  0  0  0  0  0  0  0  0  0  0  0
   -4.0974   -0.0762    0.0341 H   0  0  0  0  0  0  0  0  0  0  0  0
   -3.6294   -0.9932   -1.3926 H   0  0  0  0  0  0  0  0  0  0  0  0
   -1.7184    1.9239   -1.3800 H   0  0  0  0  0  0  0  0  0  0  0  0
    0.2400    2.0437    0.3322 H   0  0  0  0  0  0  0  0  0  0  0  0
    0.8472    1.1083   -2.5083 H   0  0  0  0  0  0  0  0  0  0  0  0
    1.9933    1.9198   -1.4398 H   0  0  0  0  0  0  0  0  0  0  0  0
    0.5494    2.7722   -1.9969 H   0  0  0  0  0  0  0  0  0  0  0  0
    0.9420   -0.7007   -0.7953 H   0  0  0  0  0  0  0  0  0  0  0  0
    2.1032    0.9077    1.5627 H   0  0  0  0  0  0  0  0  0  0  0  0
    5.0280   -0.3480    0.3679 H   0  0  0  0  0  0  0  0  0  0  0  0
   -0.4073    0.0350    1.8390 H   0  0  0  0  0  0  0  0  0  0  0  0
    1.3483   -1.6510    2.2651 H   0  0  0  0  0  0  0  0  0  0  0  0
   -0.2402   -2.4141    2.3571 H   0  0  0  0  0  0  0  0  0  0  0  0
    0.7677   -2.6327    0.9226 H   0  0  0  0  0  0  0  0  0  0  0  0
   -2.2071   -1.4037    1.0609 H   0  0  0  0  0  0  0  0  0  0  0  0
   -1.2705   -1.9140   -0.3386 H   0  0  0  0  0  0  0  0  0  0  0  0
  1  2  1  0  0  0  0
  2  3  2  0  0  0  0
  3  4  1  0  0  0  0
  4  5  1  0  0  0  0
  4  6  1  0  0  0  0
  6  7  1  0  0  0  0
  7  8  2  0  0  0  0
  8  9  1  0  0  0  0
  6 10  1  0  0  0  0
 10 11  1  0  0  0  0
  2 12  1  0  0  0  0
 10 12  1  0  0  0  0
  1 13  1  0  0  0  0
  1 14  1  0  0  0  0
  1 15  1  0  0  0  0
  3 16  1  0  0  0  0
  4 17  1  0  0  0  0
  5 18  1  0  0  0  0
  5 19  1  0  0  0  0
  5 20  1  0  0  0  0
  6 21  1  0  0  0  0
  7 22  1  0  0  0  0
  9 23  1  0  0  0  0
 10 24  1  0  0  0  0
 11 25  1  0  0  0  0
 11 26  1  0  0  0  0
 11 27  1  0  0  0  0
 12 28  1  0  0  0  0
 12 29  1  0  0  0  0
M  END
