 xtb: 6.7.1 (edcfbbe)
          07082617493D

 15 14  0     0  0            999 V2000
   -1.4129    1.1329   -0.0775 C   0  0  0  0  0  0  0  0  0  0  0  0
   -1.3022   -0.2271    0.5999 C   0  0  0  0  0  0  0  0  0  0  0  0
   -0.1960   -1.0820   -0.0266 C   0  0  0  0  0  0  0  0  0  0  0  0
    1.1451   -0.4753    0.1897 C   0  0  0  0  0  0  0  0  0  0  0  0
    1.8844   -0.2123   -0.7956 N   0  0  0  0  0  0  0  0  0  0  0  0
    3.1228    0.3541   -0.4905 O   0  0  0  0  0  0  0  0  0  0  0  0
   -0.4768    1.6794    0.0109 H   0  0  0  0  0  0  0  0  0  0  0  0
   -1.6378    1.0132   -1.1347 H   0  0  0  0  0  0  0  0  0  0  0  0
   -2.2032    1.7242    0.3792 H   0  0  0  0  0  0  0  0  0  0  0  0
   -2.2522   -0.7582    0.5109 H   0  0  0  0  0  0  0  0  0  0  0  0
   -1.0944   -0.0905    1.6637 H   0  0  0  0  0  0  0  0  0  0  0  0
   -0.2036   -2.0727    0.4368 H   0  0  0  0  0  0  0  0  0  0  0  0
   -0.3661   -1.1964   -1.0977 H   0  0  0  0  0  0  0  0  0  0  0  0
    1.4470   -0.2699    1.2183 H   0  0  0  0  0  0  0  0  0  0  0  0
    3.5459    0.4806   -1.3508 H   0  0  0  0  0  0  0  0  0  0  0  0
  1  2  1  0  0  0  0
  2  3  1  0  0  0  0
  3  4  1  0  0  0  0
  4  5  2  0  0  0  0
  5  6  1  0  0  0  0
  1  7  1  0  0  0  0
  1  8  1  0  0  0  0
  1  9  1  0  0  0  0
  2 10  1  0  0  0  0
  2 11  1  0  0  0  0
  3 12  1  0  0  0  0
  3 13  1  0  0  0  0
  4 14  1  0  0  0  0
  6 15  1  0  0  0  0
M  END
