 xtb: 6.7.1 (edcfbbe)
          07072623473D

 33 33  0     0  0            999 V2000
   -5.8397    0.6937   -0.6659 C   0  0  0  0  0  0  0  0  0  0  0  0
   -4.4476    1.1911   -0.3010 C   0  0  0  0  0  0  0  0  0  0  0  0
   -3.4740    0.0341   -0.0997 C   0  0  0  0  0  0  0  0  0  0  0  0
   -2.1035    0.5140    0.3190 C   0  0  0  0  0  0  0  0  0  0  0  0
   -1.8034    1.6524    0.5630 O   0  0  0  0  0  0  0  0  0  0  0  0
   -1.2467   -0.5111    0.3984 O   0  0  0  0  0  0  0  0  0  0  0  0
    0.0864   -0.1986    0.8059 C   0  0  0  0  0  0  0  0  0  0  0  0
    0.8171   -1.4983    1.1073 C   0  0  0  0  0  0  0  0  0  0  0  0
    2.2482   -1.2381    1.5915 C   0  0  0  0  0  0  0  0  0  0  0  0
    3.0795   -0.5802    0.5256 C   0  0  0  0  0  0  0  0  0  0  0  0
    3.3512    0.7810    0.5670 C   0  0  0  0  0  0  0  0  0  0  0  0
    4.0934    1.3837   -0.4338 C   0  0  0  0  0  0  0  0  0  0  0  0
    4.5729    0.6312   -1.4918 C   0  0  0  0  0  0  0  0  0  0  0  0
    4.3088   -0.7270   -1.5420 C   0  0  0  0  0  0  0  0  0  0  0  0
    3.5678   -1.3267   -0.5399 C   0  0  0  0  0  0  0  0  0  0  0  0
   -6.5168    1.5320   -0.8085 H   0  0  0  0  0  0  0  0  0  0  0  0
   -5.8113    0.1155   -1.5870 H   0  0  0  0  0  0  0  0  0  0  0  0
   -6.2399    0.0607    0.1234 H   0  0  0  0  0  0  0  0  0  0  0  0
   -4.4909    1.7806    0.6160 H   0  0  0  0  0  0  0  0  0  0  0  0
   -4.0675    1.8433   -1.0888 H   0  0  0  0  0  0  0  0  0  0  0  0
   -3.3648   -0.5502   -1.0156 H   0  0  0  0  0  0  0  0  0  0  0  0
   -3.8392   -0.6442    0.6754 H   0  0  0  0  0  0  0  0  0  0  0  0
    0.5838    0.3557    0.0021 H   0  0  0  0  0  0  0  0  0  0  0  0
    0.0437    0.4488    1.6893 H   0  0  0  0  0  0  0  0  0  0  0  0
    0.2624   -2.0441    1.8726 H   0  0  0  0  0  0  0  0  0  0  0  0
    0.8356   -2.1085    0.2031 H   0  0  0  0  0  0  0  0  0  0  0  0
    2.2171   -0.6059    2.4809 H   0  0  0  0  0  0  0  0  0  0  0  0
    2.6986   -2.1939    1.8678 H   0  0  0  0  0  0  0  0  0  0  0  0
    2.9789    1.3740    1.3901 H   0  0  0  0  0  0  0  0  0  0  0  0
    4.2967    2.4435   -0.3874 H   0  0  0  0  0  0  0  0  0  0  0  0
    5.1519    1.1006   -2.2734 H   0  0  0  0  0  0  0  0  0  0  0  0
    4.6829   -1.3207   -2.3635 H   0  0  0  0  0  0  0  0  0  0  0  0
    3.3684   -2.3884   -0.5808 H   0  0  0  0  0  0  0  0  0  0  0  0
  1  2  1  0  0  0  0
  2  3  1  0  0  0  0
  3  4  1  0  0  0  0
  4  5  2  0  0  0  0
  4  6  1  0  0  0  0
  6  7  1  0  0  0  0
  7  8  1  0  0  0  0
  8  9  1  0  0  0  0
  9 10  1  0  0  0  0
 10 11  4  0  0  0  0
 11 12  4  0  0  0  0
 12 13  4  0  0  0  0
 13 14  4  0  0  0  0
 10 15  4  0  0  0  0
 14 15  4  0  0  0  0
  1 16  1  0  0  0  0
  1 17  1  0  0  0  0
  1 18  1  0  0  0  0
  2 19  1  0  0  0  0
  2 20  1  0  0  0  0
  3 21  1  0  0  0  0
  3 22  1  0  0  0  0
  7 23  1  0  0  0  0
  7 24  1  0  0  0  0
  8 25  1  0  0  0  0
  8 26  1  0  0  0  0
  9 27  1  0  0  0  0
  9 28  1  0  0  0  0
 11 29  1  0  0  0  0
 12 30  1  0  0  0  0
 13 31  1  0  0  0  0
 14 32  1  0  0  0  0
 15 33  1  0  0  0  0
M  END
