 xtb: 6.7.1 (edcfbbe)
          07072615223D

 31 31  0     0  0            999 V2000
    2.3565    1.4269    1.1834 C   0  0  0  0  0  0  0  0  0  0  0  0
    2.8714    1.0342   -0.1931 C   0  0  0  0  0  0  0  0  0  0  0  0
    1.8114    0.5890   -1.0418 O   0  0  0  0  0  0  0  0  0  0  0  0
    1.4320   -0.6850   -0.9380 C   0  0  0  0  0  0  0  0  0  0  0  0
    1.9401   -1.4818   -0.1913 O   0  0  0  0  0  0  0  0  0  0  0  0
    0.2960   -0.9822   -1.8868 C   0  0  0  0  0  0  0  0  0  0  0  0
   -1.0089   -1.2897   -1.1148 C   0  0  0  0  0  0  0  0  0  0  0  0
   -0.9504   -2.6950   -0.5121 C   0  0  0  0  0  0  0  0  0  0  0  0
   -2.0382   -1.2277   -2.0938 O   0  0  0  0  0  0  0  0  0  0  0  0
   -1.2043   -0.1991   -0.0697 C   0  0  0  0  0  0  0  0  0  0  0  0
   -1.7298    1.0220   -0.4768 C   0  0  0  0  0  0  0  0  0  0  0  0
   -1.8939    2.0577    0.4239 C   0  0  0  0  0  0  0  0  0  0  0  0
   -1.5312    1.8866    1.7486 C   0  0  0  0  0  0  0  0  0  0  0  0
   -1.0060    0.6749    2.1620 C   0  0  0  0  0  0  0  0  0  0  0  0
   -0.8407   -0.3629    1.2603 C   0  0  0  0  0  0  0  0  0  0  0  0
    1.9619    0.5532    1.6951 H   0  0  0  0  0  0  0  0  0  0  0  0
    1.5625    2.1641    1.0911 H   0  0  0  0  0  0  0  0  0  0  0  0
    3.1690    1.8453    1.7705 H   0  0  0  0  0  0  0  0  0  0  0  0
    3.6136    0.2337   -0.1062 H   0  0  0  0  0  0  0  0  0  0  0  0
    3.3060    1.8918   -0.7107 H   0  0  0  0  0  0  0  0  0  0  0  0
    0.1237   -0.1167   -2.5249 H   0  0  0  0  0  0  0  0  0  0  0  0
    0.5501   -1.8457   -2.5023 H   0  0  0  0  0  0  0  0  0  0  0  0
   -1.0228   -3.4236   -1.3175 H   0  0  0  0  0  0  0  0  0  0  0  0
   -0.0089   -2.8478    0.0064 H   0  0  0  0  0  0  0  0  0  0  0  0
   -1.7769   -2.8530    0.1791 H   0  0  0  0  0  0  0  0  0  0  0  0
   -2.8736   -1.4534   -1.6702 H   0  0  0  0  0  0  0  0  0  0  0  0
   -2.0139    1.1493   -1.5111 H   0  0  0  0  0  0  0  0  0  0  0  0
   -2.3029    3.0002    0.0900 H   0  0  0  0  0  0  0  0  0  0  0  0
   -1.6557    2.6936    2.4557 H   0  0  0  0  0  0  0  0  0  0  0  0
   -0.7185    0.5354    3.1942 H   0  0  0  0  0  0  0  0  0  0  0  0
   -0.4172   -1.2944    1.6005 H   0  0  0  0  0  0  0  0  0  0  0  0
  1  2  1  0  0  0  0
  2  3  1  0  0  0  0
  3  4  1  0  0  0  0
  4  5  2  0  0  0  0
  4  6  1  0  0  0  0
  6  7  1  0  0  0  0
  7  8  1  0  0  0  0
  7  9  1  0  0  0  0
  7 10  1  0  0  0  0
 10 11  4  0  0  0  0
 11 12  4  0  0  0  0
 12 13  4  0  0  0  0
 13 14  4  0  0  0  0
 10 15  4  0  0  0  0
 14 15  4  0  0  0  0
  1 16  1  0  0  0  0
  1 17  1  0  0  0  0
  1 18  1  0  0  0  0
  2 19  1  0  0  0  0
  2 20  1  0  0  0  0
  6 21  1  0  0  0  0
  6 22  1  0  0  0  0
  8 23  1  0  0  0  0
  8 24  1  0  0  0  0
  8 25  1  0  0  0  0
  9 26  1  0  0  0  0
 11 27  1  0  0  0  0
 12 28  1  0  0  0  0
 13 29  1  0  0  0  0
 14 30  1  0  0  0  0
 15 31  1  0  0  0  0
M  END
