 xtb: 6.7.1 (edcfbbe)
          07072603123D

 45 44  0     0  0            999 V2000
   -2.5028   -2.1202    1.1794 C   0  0  0  0  0  0  0  0  0  0  0  0
   -3.4820   -1.1003    0.6125 C   0  0  0  0  0  0  0  0  0  0  0  0
   -3.0481   -0.5265   -0.7442 C   0  0  0  0  0  0  0  0  0  0  0  0
   -1.8741    0.3131   -0.6542 N   0  0  0  0  0  0  0  0  0  0  0  0
   -2.0817    1.6623   -0.1537 C   0  0  0  0  0  0  0  0  0  0  0  0
   -2.3374    2.6572   -1.2880 C   0  0  0  0  0  0  0  0  0  0  0  0
   -2.6049    4.0548   -0.7463 C   0  0  0  0  0  0  0  0  0  0  0  0
   -0.6227   -0.0136   -1.0432 C   0  0  0  0  0  0  0  0  0  0  0  0
    0.2948    0.7852   -0.9541 O   0  0  0  0  0  0  0  0  0  0  0  0
   -0.3880   -1.4110   -1.6067 C   0  0  0  0  0  0  0  0  0  0  0  0
    1.1129   -1.6876   -1.6076 C   0  0  0  0  0  0  0  0  0  0  0  0
    1.6381   -1.5679   -0.1884 C   0  0  0  0  0  0  0  0  0  0  0  0
    0.9849   -1.8119    0.7952 O   0  0  0  0  0  0  0  0  0  0  0  0
    2.9090   -1.1928   -0.1859 O   0  0  0  0  0  0  0  0  0  0  0  0
    3.5670   -0.9867    1.0747 C   0  0  0  0  0  0  0  0  0  0  0  0
    4.8262   -1.8460    1.0919 C   0  0  0  0  0  0  0  0  0  0  0  0
    3.8818    0.5032    1.2228 C   0  0  0  0  0  0  0  0  0  0  0  0
    2.6212    1.3445    1.3820 C   0  0  0  0  0  0  0  0  0  0  0  0
   -1.5030   -1.7014    1.2631 H   0  0  0  0  0  0  0  0  0  0  0  0
   -2.4604   -3.0052    0.5472 H   0  0  0  0  0  0  0  0  0  0  0  0
   -2.8238   -2.4328    2.1703 H   0  0  0  0  0  0  0  0  0  0  0  0
   -4.4616   -1.5660    0.4822 H   0  0  0  0  0  0  0  0  0  0  0  0
   -3.5983   -0.2828    1.3262 H   0  0  0  0  0  0  0  0  0  0  0  0
   -2.8704   -1.3399   -1.4471 H   0  0  0  0  0  0  0  0  0  0  0  0
   -3.8647    0.0849   -1.1452 H   0  0  0  0  0  0  0  0  0  0  0  0
   -2.9259    1.6557    0.5379 H   0  0  0  0  0  0  0  0  0  0  0  0
   -1.1807    1.9596    0.3881 H   0  0  0  0  0  0  0  0  0  0  0  0
   -3.1920    2.3225   -1.8817 H   0  0  0  0  0  0  0  0  0  0  0  0
   -1.4603    2.6730   -1.9362 H   0  0  0  0  0  0  0  0  0  0  0  0
   -3.4840    4.0563   -0.1048 H   0  0  0  0  0  0  0  0  0  0  0  0
   -1.7549    4.4035   -0.1651 H   0  0  0  0  0  0  0  0  0  0  0  0
   -2.7738    4.7533   -1.5620 H   0  0  0  0  0  0  0  0  0  0  0  0
   -0.8822   -2.1556   -0.9871 H   0  0  0  0  0  0  0  0  0  0  0  0
   -0.7845   -1.4612   -2.6234 H   0  0  0  0  0  0  0  0  0  0  0  0
    1.6471   -0.9723   -2.2311 H   0  0  0  0  0  0  0  0  0  0  0  0
    1.3172   -2.6975   -1.9688 H   0  0  0  0  0  0  0  0  0  0  0  0
    2.8790   -1.3046    1.8683 H   0  0  0  0  0  0  0  0  0  0  0  0
    5.3377   -1.7339    2.0437 H   0  0  0  0  0  0  0  0  0  0  0  0
    4.5693   -2.8933    0.9523 H   0  0  0  0  0  0  0  0  0  0  0  0
    5.4939   -1.5406    0.2902 H   0  0  0  0  0  0  0  0  0  0  0  0
    4.4327    0.8270    0.3379 H   0  0  0  0  0  0  0  0  0  0  0  0
    4.5272    0.6301    2.0946 H   0  0  0  0  0  0  0  0  0  0  0  0
    2.0724    1.0402    2.2713 H   0  0  0  0  0  0  0  0  0  0  0  0
    2.8809    2.3962    1.4780 H   0  0  0  0  0  0  0  0  0  0  0  0
    1.9688    1.2287    0.5196 H   0  0  0  0  0  0  0  0  0  0  0  0
  1  2  1  0  0  0  0
  2  3  1  0  0  0  0
  3  4  1  0  0  0  0
  4  5  1  0  0  0  0
  5  6  1  0  0  0  0
  6  7  1  0  0  0  0
  4  8  4  0  0  0  0
  8  9  2  0  0  0  0
  8 10  1  0  0  0  0
 10 11  1  0  0  0  0
 11 12  1  0  0  0  0
 12 13  2  0  0  0  0
 12 14  1  0  0  0  0
 14 15  1  0  0  0  0
 15 16  1  0  0  0  0
 15 17  1  0  0  0  0
 17 18  1  0  0  0  0
  1 19  1  0  0  0  0
  1 20  1  0  0  0  0
  1 21  1  0  0  0  0
  2 22  1  0  0  0  0
  2 23  1  0  0  0  0
  3 24  1  0  0  0  0
  3 25  1  0  0  0  0
  5 26  1  0  0  0  0
  5 27  1  0  0  0  0
  6 28  1  0  0  0  0
  6 29  1  0  0  0  0
  7 30  1  0  0  0  0
  7 31  1  0  0  0  0
  7 32  1  0  0  0  0
 10 33  1  0  0  0  0
 10 34  1  0  0  0  0
 11 35  1  0  0  0  0
 11 36  1  0  0  0  0
 15 37  1  0  0  0  0
 16 38  1  0  0  0  0
 16 39  1  0  0  0  0
 16 40  1  0  0  0  0
 17 41  1  0  0  0  0
 17 42  1  0  0  0  0
 18 43  1  0  0  0  0
 18 44  1  0  0  0  0
 18 45  1  0  0  0  0
M  END
