 xtb: 6.7.1 (edcfbbe)
          07062623473D

 74 75  0     0  0            999 V2000
   -0.1785   -2.5600    1.9054 C   0  0  0  0  0  0  0  0  0  0  0  0
    0.0381   -1.2746    1.6527 C   0  0  0  0  0  0  0  0  0  0  0  0
   -1.0671   -0.3083    1.3165 C   0  0  0  0  0  0  0  0  0  0  0  0
   -1.3527   -0.2967   -0.1876 C   0  0  0  0  0  0  0  0  0  0  0  0
   -0.1572    0.1659   -1.0257 C   0  0  0  0  0  0  0  0  0  0  0  0
   -0.7825    0.5991   -2.3489 C   0  0  0  0  0  0  0  0  0  0  0  0
   -2.1146    1.1559   -1.9535 C   0  0  0  0  0  0  0  0  0  0  0  0
   -2.7169    1.9347   -2.7397 N   0  0  0  0  0  0  0  0  0  0  0  0
   -3.9633    2.4543   -2.2960 O   0  0  0  0  0  0  0  0  0  0  0  0
   -5.0049    2.2047   -3.1098 C   0  0  0  0  0  0  0  0  0  0  0  0
   -4.9682    1.4974   -4.0805 O   0  0  0  0  0  0  0  0  0  0  0  0
   -6.2117    2.8920   -2.5861 C   0  0  0  0  0  0  0  0  0  0  0  0
   -7.5283    2.1702   -2.7352 C   0  0  0  0  0  0  0  0  0  0  0  0
   -7.2379    3.3498   -3.5917 C   0  0  0  0  0  0  0  0  0  0  0  0
   -2.4807    0.6794   -0.5695 C   0  0  0  0  0  0  0  0  0  0  0  0
   -3.8930    0.0913   -0.4430 C   0  0  0  0  0  0  0  0  0  0  0  0
   -4.2584   -0.8891   -1.5563 C   0  0  0  0  0  0  0  0  0  0  0  0
   -5.7028   -1.3661   -1.4241 C   0  0  0  0  0  0  0  0  0  0  0  0
   -6.1326   -2.2093   -2.6216 C   0  0  0  0  0  0  0  0  0  0  0  0
   -7.5766   -2.6795   -2.4979 C   0  0  0  0  0  0  0  0  0  0  0  0
    1.2440   -0.6473    1.6271 O   0  0  0  0  0  0  0  0  0  0  0  0
    2.4061   -1.4141    1.8485 C   0  0  0  0  0  0  0  0  0  0  0  0
    3.5955   -0.5191    1.6861 C   0  0  0  0  0  0  0  0  0  0  0  0
    4.8488   -0.8821    1.9313 C   0  0  0  0  0  0  0  0  0  0  0  0
    5.1883   -2.2619    2.4164 C   0  0  0  0  0  0  0  0  0  0  0  0
    5.9878    0.0819    1.7777 C   0  0  0  0  0  0  0  0  0  0  0  0
    6.4583    0.6011    3.1501 C   0  0  0  0  0  0  0  0  0  0  0  0
    7.5865    1.5715    2.9853 C   0  0  0  0  0  0  0  0  0  0  0  0
    8.8872    1.3154    3.0580 C   0  0  0  0  0  0  0  0  0  0  0  0
    9.4860   -0.0275    3.3534 C   0  0  0  0  0  0  0  0  0  0  0  0
    9.9063    2.3953    2.8347 C   0  0  0  0  0  0  0  0  0  0  0  0
   -1.1806   -2.9460    1.8971 H   0  0  0  0  0  0  0  0  0  0  0  0
    0.6003   -3.2648    2.1297 H   0  0  0  0  0  0  0  0  0  0  0  0
   -0.7576    0.6894    1.6336 H   0  0  0  0  0  0  0  0  0  0  0  0
   -1.9718   -0.5869    1.8576 H   0  0  0  0  0  0  0  0  0  0  0  0
   -1.6344   -1.3078   -0.4955 H   0  0  0  0  0  0  0  0  0  0  0  0
    0.5878   -0.6169   -1.1537 H   0  0  0  0  0  0  0  0  0  0  0  0
    0.3238    1.0160   -0.5395 H   0  0  0  0  0  0  0  0  0  0  0  0
   -0.1907    1.3190   -2.9101 H   0  0  0  0  0  0  0  0  0  0  0  0
   -0.9579   -0.2664   -2.9926 H   0  0  0  0  0  0  0  0  0  0  0  0
   -6.0357    3.4908   -1.7034 H   0  0  0  0  0  0  0  0  0  0  0  0
   -8.2449    2.2634   -1.9335 H   0  0  0  0  0  0  0  0  0  0  0  0
   -7.4929    1.1956   -3.1980 H   0  0  0  0  0  0  0  0  0  0  0  0
   -7.7469    4.2809   -3.3966 H   0  0  0  0  0  0  0  0  0  0  0  0
   -7.0067    3.1713   -4.6305 H   0  0  0  0  0  0  0  0  0  0  0  0
   -2.4240    1.5585    0.0864 H   0  0  0  0  0  0  0  0  0  0  0  0
   -3.9697   -0.4117    0.5245 H   0  0  0  0  0  0  0  0  0  0  0  0
   -4.6193    0.9070   -0.4442 H   0  0  0  0  0  0  0  0  0  0  0  0
   -3.5898   -1.7526   -1.5340 H   0  0  0  0  0  0  0  0  0  0  0  0
   -4.1381   -0.4064   -2.5279 H   0  0  0  0  0  0  0  0  0  0  0  0
   -6.3610   -0.4966   -1.3473 H   0  0  0  0  0  0  0  0  0  0  0  0
   -5.8153   -1.9476   -0.5052 H   0  0  0  0  0  0  0  0  0  0  0  0
   -5.4746   -3.0771   -2.7078 H   0  0  0  0  0  0  0  0  0  0  0  0
   -6.0182   -1.6152   -3.5309 H   0  0  0  0  0  0  0  0  0  0  0  0
   -8.2508   -1.8283   -2.4274 H   0  0  0  0  0  0  0  0  0  0  0  0
   -7.7053   -3.2909   -1.6068 H   0  0  0  0  0  0  0  0  0  0  0  0
   -7.8618   -3.2715   -3.3643 H   0  0  0  0  0  0  0  0  0  0  0  0
    2.4510   -2.2474    1.1277 H   0  0  0  0  0  0  0  0  0  0  0  0
    2.3828   -1.8522    2.8590 H   0  0  0  0  0  0  0  0  0  0  0  0
    3.3592    0.4757    1.3403 H   0  0  0  0  0  0  0  0  0  0  0  0
    4.7215   -2.4558    3.3823 H   0  0  0  0  0  0  0  0  0  0  0  0
    6.2625   -2.3872    2.5187 H   0  0  0  0  0  0  0  0  0  0  0  0
    4.8175   -3.0123    1.7187 H   0  0  0  0  0  0  0  0  0  0  0  0
    6.8282   -0.4089    1.2817 H   0  0  0  0  0  0  0  0  0  0  0  0
    5.6803    0.9316    1.1665 H   0  0  0  0  0  0  0  0  0  0  0  0
    5.6177    1.1005    3.6365 H   0  0  0  0  0  0  0  0  0  0  0  0
    6.7504   -0.2435    3.7741 H   0  0  0  0  0  0  0  0  0  0  0  0
    7.2749    2.5790    2.7398 H   0  0  0  0  0  0  0  0  0  0  0  0
    9.9969   -0.4060    2.4676 H   0  0  0  0  0  0  0  0  0  0  0  0
    8.7401   -0.7561    3.6537 H   0  0  0  0  0  0  0  0  0  0  0  0
   10.2264    0.0602    4.1478 H   0  0  0  0  0  0  0  0  0  0  0  0
   10.5008    2.5456    3.7358 H   0  0  0  0  0  0  0  0  0  0  0  0
    9.4329    3.3372    2.5707 H   0  0  0  0  0  0  0  0  0  0  0  0
   10.5881    2.1101    2.0338 H   0  0  0  0  0  0  0  0  0  0  0  0
  1  2  2  0  0  0  0
  2  3  1  0  0  0  0
  3  4  1  0  0  0  0
  4  5  1  0  0  0  0
  5  6  1  0  0  0  0
  6  7  1  0  0  0  0
  7  8  2  0  0  0  0
  8  9  1  0  0  0  0
  9 10  1  0  0  0  0
 10 11  2  0  0  0  0
 10 12  1  0  0  0  0
 12 13  1  0  0  0  0
 12 14  1  0  0  0  0
 13 14  1  0  0  0  0
  4 15  1  0  0  0  0
  7 15  1  0  0  0  0
 15 16  1  0  0  0  0
 16 17  1  0  0  0  0
 17 18  1  0  0  0  0
 18 19  1  0  0  0  0
 19 20  1  0  0  0  0
  2 21  1  0  0  0  0
 21 22  1  0  0  0  0
 22 23  1  0  0  0  0
 23 24  2  0  0  0  0
 24 25  1  0  0  0  0
 24 26  1  0  0  0  0
 26 27  1  0  0  0  0
 27 28  1  0  0  0  0
 28 29  2  0  0  0  0
 29 30  1  0  0  0  0
 29 31  1  0  0  0  0
  1 32  1  0  0  0  0
  1 33  1  0  0  0  0
  3 34  1  0  0  0  0
  3 35  1  0  0  0  0
  4 36  1  0  0  0  0
  5 37  1  0  0  0  0
  5 38  1  0  0  0  0
  6 39  1  0  0  0  0
  6 40  1  0  0  0  0
 12 41  1  0  0  0  0
 13 42  1  0  0  0  0
 13 43  1  0  0  0  0
 14 44  1  0  0  0  0
 14 45  1  0  0  0  0
 15 46  1  0  0  0  0
 16 47  1  0  0  0  0
 16 48  1  0  0  0  0
 17 49  1  0  0  0  0
 17 50  1  0  0  0  0
 18 51  1  0  0  0  0
 18 52  1  0  0  0  0
 19 53  1  0  0  0  0
 19 54  1  0  0  0  0
 20 55  1  0  0  0  0
 20 56  1  0  0  0  0
 20 57  1  0  0  0  0
 22 58  1  0  0  0  0
 22 59  1  0  0  0  0
 23 60  1  0  0  0  0
 25 61  1  0  0  0  0
 25 62  1  0  0  0  0
 25 63  1  0  0  0  0
 26 64  1  0  0  0  0
 26 65  1  0  0  0  0
 27 66  1  0  0  0  0
 27 67  1  0  0  0  0
 28 68  1  0  0  0  0
 30 69  1  0  0  0  0
 30 70  1  0  0  0  0
 30 71  1  0  0  0  0
 31 72  1  0  0  0  0
 31 73  1  0  0  0  0
 31 74  1  0  0  0  0
M  END
