 xtb: 6.7.1 (edcfbbe)
          07072614133D

 28 29  0     0  0            999 V2000
    4.0688    0.0343    1.2475 C   0  0  0  0  0  0  0  0  0  0  0  0
    3.4008    0.7311    0.0701 C   0  0  0  0  0  0  0  0  0  0  0  0
    2.1709   -0.0304   -0.4091 C   0  0  0  0  0  0  0  0  0  0  0  0
    1.6104    0.6633   -1.5044 O   0  0  0  0  0  0  0  0  0  0  0  0
    0.4504    0.0553   -2.0204 C   0  0  0  0  0  0  0  0  0  0  0  0
   -0.7304    0.1149   -1.0777 C   0  0  0  0  0  0  0  0  0  0  0  0
   -0.9939    1.2942   -0.3967 C   0  0  0  0  0  0  0  0  0  0  0  0
   -2.0598    1.4106    0.4906 C   0  0  0  0  0  0  0  0  0  0  0  0
   -2.8530    0.3020    0.6596 C   0  0  0  0  0  0  0  0  0  0  0  0
   -2.5964   -0.8869   -0.0241 C   0  0  0  0  0  0  0  0  0  0  0  0
   -1.5398   -1.0086   -0.8922 C   0  0  0  0  0  0  0  0  0  0  0  0
   -3.5306   -1.8255    0.3292 O   0  0  0  0  0  0  0  0  0  0  0  0
   -4.3843   -1.1907    1.2565 C   0  0  0  0  0  0  0  0  0  0  0  0
   -3.9548    0.1379    1.4588 O   0  0  0  0  0  0  0  0  0  0  0  0
    4.3898   -0.9668    0.9683 H   0  0  0  0  0  0  0  0  0  0  0  0
    3.3784   -0.0487    2.0841 H   0  0  0  0  0  0  0  0  0  0  0  0
    4.9400    0.5961    1.5744 H   0  0  0  0  0  0  0  0  0  0  0  0
    4.1001    0.8192   -0.7624 H   0  0  0  0  0  0  0  0  0  0  0  0
    3.0937    1.7384    0.3542 H   0  0  0  0  0  0  0  0  0  0  0  0
    1.4351   -0.1149    0.4049 H   0  0  0  0  0  0  0  0  0  0  0  0
    2.4508   -1.0506   -0.7191 H   0  0  0  0  0  0  0  0  0  0  0  0
    0.6563   -0.9913   -2.2925 H   0  0  0  0  0  0  0  0  0  0  0  0
    0.2220    0.6140   -2.9343 H   0  0  0  0  0  0  0  0  0  0  0  0
   -0.3409    2.1378   -0.5587 H   0  0  0  0  0  0  0  0  0  0  0  0
   -2.2594    2.3263    1.0209 H   0  0  0  0  0  0  0  0  0  0  0  0
   -1.3492   -1.9348   -1.4090 H   0  0  0  0  0  0  0  0  0  0  0  0
   -5.4156   -1.1901    0.8678 H   0  0  0  0  0  0  0  0  0  0  0  0
   -4.3593   -1.7362    2.2138 H   0  0  0  0  0  0  0  0  0  0  0  0
  1  2  1  0  0  0  0
  2  3  1  0  0  0  0
  3  4  1  0  0  0  0
  4  5  1  0  0  0  0
  5  6  1  0  0  0  0
  6  7  4  0  0  0  0
  7  8  4  0  0  0  0
  8  9  4  0  0  0  0
  9 10  4  0  0  0  0
  6 11  4  0  0  0  0
 10 11  4  0  0  0  0
 10 12  1  0  0  0  0
 12 13  1  0  0  0  0
  9 14  1  0  0  0  0
 13 14  1  0  0  0  0
  1 15  1  0  0  0  0
  1 16  1  0  0  0  0
  1 17  1  0  0  0  0
  2 18  1  0  0  0  0
  2 19  1  0  0  0  0
  3 20  1  0  0  0  0
  3 21  1  0  0  0  0
  5 22  1  0  0  0  0
  5 23  1  0  0  0  0
  7 24  1  0  0  0  0
  8 25  1  0  0  0  0
 11 26  1  0  0  0  0
 13 27  1  0  0  0  0
 13 28  1  0  0  0  0
M  END
