 xtb: 6.7.1 (edcfbbe)
          07092600063D

 20 20  0     0  0            999 V2000
   -2.1560    0.3512    0.9966 C   0  0  0  0  0  0  0  0  0  0  0  0
   -1.4671    0.0037   -0.3230 C   0  0  0  0  0  0  0  0  0  0  0  0
   -1.8079   -1.3953   -0.7751 C   0  0  0  0  0  0  0  0  0  0  0  0
   -2.5559   -2.1500   -0.2230 O   0  0  0  0  0  0  0  0  0  0  0  0
    0.0344    0.1319   -0.2169 C   0  0  0  0  0  0  0  0  0  0  0  0
    0.7588   -0.8125    0.5013 C   0  0  0  0  0  0  0  0  0  0  0  0
    2.1320   -0.6996    0.6228 C   0  0  0  0  0  0  0  0  0  0  0  0
    2.7972    0.3597    0.0286 C   0  0  0  0  0  0  0  0  0  0  0  0
    2.0827    1.3041   -0.6879 C   0  0  0  0  0  0  0  0  0  0  0  0
    0.7089    1.1891   -0.8118 C   0  0  0  0  0  0  0  0  0  0  0  0
   -1.9386    1.3788    1.2774 H   0  0  0  0  0  0  0  0  0  0  0  0
   -1.8074   -0.3089    1.7867 H   0  0  0  0  0  0  0  0  0  0  0  0
   -3.2316    0.2272    0.8983 H   0  0  0  0  0  0  0  0  0  0  0  0
   -1.8213    0.6799   -1.1114 H   0  0  0  0  0  0  0  0  0  0  0  0
   -1.2771   -1.6879   -1.7044 H   0  0  0  0  0  0  0  0  0  0  0  0
    0.2423   -1.6408    0.9651 H   0  0  0  0  0  0  0  0  0  0  0  0
    2.6845   -1.4408    1.1812 H   0  0  0  0  0  0  0  0  0  0  0  0
    3.8692    0.4481    0.1230 H   0  0  0  0  0  0  0  0  0  0  0  0
    2.5960    2.1325   -1.1537 H   0  0  0  0  0  0  0  0  0  0  0  0
    0.1568    1.9293   -1.3738 H   0  0  0  0  0  0  0  0  0  0  0  0
  1  2  1  0  0  0  0
  2  3  1  0  0  0  0
  3  4  2  0  0  0  0
  2  5  1  0  0  0  0
  5  6  4  0  0  0  0
  6  7  4  0  0  0  0
  7  8  4  0  0  0  0
  8  9  4  0  0  0  0
  5 10  4  0  0  0  0
  9 10  4  0  0  0  0
  1 11  1  0  0  0  0
  1 12  1  0  0  0  0
  1 13  1  0  0  0  0
  2 14  1  0  0  0  0
  3 15  1  0  0  0  0
  6 16  1  0  0  0  0
  7 17  1  0  0  0  0
  8 18  1  0  0  0  0
  9 19  1  0  0  0  0
 10 20  1  0  0  0  0
M  END
