 xtb: 6.7.1 (edcfbbe)
          07082620473D

 23 22  0     0  0            999 V2000
    4.1715   -0.4432   -0.3534 C   0  0  0  0  0  0  0  0  0  0  0  0
    2.8278   -1.0089    0.0275 C   0  0  0  0  0  0  0  0  0  0  0  0
    2.6284   -2.1295    0.4152 O   0  0  0  0  0  0  0  0  0  0  0  0
    1.8652   -0.0948   -0.1230 O   0  0  0  0  0  0  0  0  0  0  0  0
    0.5362   -0.5077    0.2038 C   0  0  0  0  0  0  0  0  0  0  0  0
   -0.4102    0.6385   -0.1224 C   0  0  0  0  0  0  0  0  0  0  0  0
   -1.8426    0.3955    0.3638 C   0  0  0  0  0  0  0  0  0  0  0  0
   -2.6664    1.6699    0.1869 C   0  0  0  0  0  0  0  0  0  0  0  0
   -2.5033   -0.7613   -0.3823 C   0  0  0  0  0  0  0  0  0  0  0  0
    4.1526   -0.1427   -1.3980 H   0  0  0  0  0  0  0  0  0  0  0  0
    4.9404   -1.1929   -0.1963 H   0  0  0  0  0  0  0  0  0  0  0  0
    4.3779    0.4374    0.2495 H   0  0  0  0  0  0  0  0  0  0  0  0
    0.4974   -0.7599    1.2701 H   0  0  0  0  0  0  0  0  0  0  0  0
    0.3019   -1.4115   -0.3674 H   0  0  0  0  0  0  0  0  0  0  0  0
   -0.0163    1.5396    0.3519 H   0  0  0  0  0  0  0  0  0  0  0  0
   -0.4103    0.8046   -1.2012 H   0  0  0  0  0  0  0  0  0  0  0  0
   -1.8087    0.1487    1.4309 H   0  0  0  0  0  0  0  0  0  0  0  0
   -3.6811    1.5206    0.5478 H   0  0  0  0  0  0  0  0  0  0  0  0
   -2.2248    2.4956    0.7397 H   0  0  0  0  0  0  0  0  0  0  0  0
   -2.7139    1.9466   -0.8641 H   0  0  0  0  0  0  0  0  0  0  0  0
   -2.5031   -0.5704   -1.4533 H   0  0  0  0  0  0  0  0  0  0  0  0
   -1.9839   -1.6971   -0.1961 H   0  0  0  0  0  0  0  0  0  0  0  0
   -3.5345   -0.8771   -0.0567 H   0  0  0  0  0  0  0  0  0  0  0  0
  1  2  1  0  0  0  0
  2  3  2  0  0  0  0
  2  4  1  0  0  0  0
  4  5  1  0  0  0  0
  5  6  1  0  0  0  0
  6  7  1  0  0  0  0
  7  8  1  0  0  0  0
  7  9  1  0  0  0  0
  1 10  1  0  0  0  0
  1 11  1  0  0  0  0
  1 12  1  0  0  0  0
  5 13  1  0  0  0  0
  5 14  1  0  0  0  0
  6 15  1  0  0  0  0
  6 16  1  0  0  0  0
  7 17  1  0  0  0  0
  8 18  1  0  0  0  0
  8 19  1  0  0  0  0
  8 20  1  0  0  0  0
  9 21  1  0  0  0  0
  9 22  1  0  0  0  0
  9 23  1  0  0  0  0
M  END
