 xtb: 6.7.1 (edcfbbe)
          07092605213D

 23 22  0     0  0            999 V2000
    4.2463   -0.0521    0.0462 C   0  0  0  0  0  0  0  0  0  0  0  0
    3.0399    0.2274    0.7433 O   0  0  0  0  0  0  0  0  0  0  0  0
    1.9750    0.5318   -0.0126 C   0  0  0  0  0  0  0  0  0  0  0  0
    2.0057    0.5635   -1.2139 O   0  0  0  0  0  0  0  0  0  0  0  0
    0.7767    0.8439    0.8538 C   0  0  0  0  0  0  0  0  0  0  0  0
   -0.5349    0.7498    0.0788 C   0  0  0  0  0  0  0  0  0  0  0  0
   -0.8710   -0.6936   -0.2912 C   0  0  0  0  0  0  0  0  0  0  0  0
   -2.1748   -0.7860   -1.0790 C   0  0  0  0  0  0  0  0  0  0  0  0
   -3.3844   -0.4838   -0.2325 C   0  0  0  0  0  0  0  0  0  0  0  0
   -3.4316   -0.4787    0.9675 O   0  0  0  0  0  0  0  0  0  0  0  0
   -4.4610   -0.2291   -0.9916 O   0  0  0  0  0  0  0  0  0  0  0  0
    4.5091    0.7822   -0.6072 H   0  0  0  0  0  0  0  0  0  0  0  0
    4.1320   -0.9516   -0.5623 H   0  0  0  0  0  0  0  0  0  0  0  0
    5.0097   -0.2001    0.8054 H   0  0  0  0  0  0  0  0  0  0  0  0
    0.7808    0.1702    1.7112 H   0  0  0  0  0  0  0  0  0  0  0  0
    0.9165    1.8597    1.2323 H   0  0  0  0  0  0  0  0  0  0  0  0
   -0.4464    1.3449   -0.8321 H   0  0  0  0  0  0  0  0  0  0  0  0
   -1.3398    1.1609    0.6890 H   0  0  0  0  0  0  0  0  0  0  0  0
   -0.0620   -1.1064   -0.8947 H   0  0  0  0  0  0  0  0  0  0  0  0
   -0.9671   -1.2878    0.6195 H   0  0  0  0  0  0  0  0  0  0  0  0
   -2.3105   -1.7984   -1.4685 H   0  0  0  0  0  0  0  0  0  0  0  0
   -2.1715   -0.1065   -1.9323 H   0  0  0  0  0  0  0  0  0  0  0  0
   -5.2369   -0.0600   -0.4342 H   0  0  0  0  0  0  0  0  0  0  0  0
  1  2  1  0  0  0  0
  2  3  1  0  0  0  0
  3  4  2  0  0  0  0
  3  5  1  0  0  0  0
  5  6  1  0  0  0  0
  6  7  1  0  0  0  0
  7  8  1  0  0  0  0
  8  9  1  0  0  0  0
  9 10  2  0  0  0  0
  9 11  1  0  0  0  0
  1 12  1  0  0  0  0
  1 13  1  0  0  0  0
  1 14  1  0  0  0  0
  5 15  1  0  0  0  0
  5 16  1  0  0  0  0
  6 17  1  0  0  0  0
  6 18  1  0  0  0  0
  7 19  1  0  0  0  0
  7 20  1  0  0  0  0
  8 21  1  0  0  0  0
  8 22  1  0  0  0  0
 11 23  1  0  0  0  0
M  END
