 xtb: 6.7.1 (edcfbbe)
          07082613473D

 23 24  0     0  0            999 V2000
   -2.1304    1.4294   -0.9743 O   0  0  0  0  0  0  0  0  0  0  0  0
   -2.0595    0.7074    0.2342 C   0  0  0  0  0  0  0  0  0  0  0  0
   -2.0683   -0.8093    0.0114 C   0  0  0  0  0  0  0  0  0  0  0  0
   -0.8671   -1.2359   -0.8280 C   0  0  0  0  0  0  0  0  0  0  0  0
    0.4251   -0.6248   -0.3547 C   0  0  0  0  0  0  0  0  0  0  0  0
    1.6284   -1.1544   -0.8102 C   0  0  0  0  0  0  0  0  0  0  0  0
    2.8394   -0.6137   -0.4259 C   0  0  0  0  0  0  0  0  0  0  0  0
    2.8613    0.4783    0.4263 C   0  0  0  0  0  0  0  0  0  0  0  0
    1.6721    1.0133    0.8806 C   0  0  0  0  0  0  0  0  0  0  0  0
    0.4469    0.4745    0.4999 C   0  0  0  0  0  0  0  0  0  0  0  0
   -0.8172    1.0831    1.0473 C   0  0  0  0  0  0  0  0  0  0  0  0
   -1.3119    1.2771   -1.4602 H   0  0  0  0  0  0  0  0  0  0  0  0
   -2.9605    1.0036    0.7833 H   0  0  0  0  0  0  0  0  0  0  0  0
   -2.0368   -1.2998    0.9856 H   0  0  0  0  0  0  0  0  0  0  0  0
   -2.9914   -1.1027   -0.4910 H   0  0  0  0  0  0  0  0  0  0  0  0
   -1.0314   -0.9465   -1.8725 H   0  0  0  0  0  0  0  0  0  0  0  0
   -0.7788   -2.3250   -0.8167 H   0  0  0  0  0  0  0  0  0  0  0  0
    1.6058   -2.0064   -1.4755 H   0  0  0  0  0  0  0  0  0  0  0  0
    3.7627   -1.0411   -0.7878 H   0  0  0  0  0  0  0  0  0  0  0  0
    3.8020    0.9102    0.7340 H   0  0  0  0  0  0  0  0  0  0  0  0
    1.6845    1.8659    1.5450 H   0  0  0  0  0  0  0  0  0  0  0  0
   -0.9542    0.7452    2.0789 H   0  0  0  0  0  0  0  0  0  0  0  0
   -0.7207    2.1716    1.0703 H   0  0  0  0  0  0  0  0  0  0  0  0
  1  2  1  0  0  0  0
  2  3  1  0  0  0  0
  3  4  1  0  0  0  0
  4  5  1  0  0  0  0
  5  6  4  0  0  0  0
  6  7  4  0  0  0  0
  7  8  4  0  0  0  0
  8  9  4  0  0  0  0
  5 10  4  0  0  0  0
  9 10  4  0  0  0  0
  2 11  1  0  0  0  0
 10 11  1  0  0  0  0
  1 12  1  0  0  0  0
  2 13  1  0  0  0  0
  3 14  1  0  0  0  0
  3 15  1  0  0  0  0
  4 16  1  0  0  0  0
  4 17  1  0  0  0  0
  6 18  1  0  0  0  0
  7 19  1  0  0  0  0
  8 20  1  0  0  0  0
  9 21  1  0  0  0  0
 11 22  1  0  0  0  0
 11 23  1  0  0  0  0
M  END
