 xtb: 6.7.1 (edcfbbe)
          07082602423D

 26 26  0     0  0            999 V2000
   -4.3394    0.2336   -1.7745 C   0  0  0  0  0  0  0  0  0  0  0  0
   -3.5090    0.5534   -0.5392 C   0  0  0  0  0  0  0  0  0  0  0  0
   -2.0454    0.1722   -0.7360 C   0  0  0  0  0  0  0  0  0  0  0  0
   -1.3528    0.4907    0.4534 O   0  0  0  0  0  0  0  0  0  0  0  0
   -0.0145    0.2571    0.5192 C   0  0  0  0  0  0  0  0  0  0  0  0
    0.6046    0.6066    1.7213 C   0  0  0  0  0  0  0  0  0  0  0  0
    1.9569    0.4094    1.8964 C   0  0  0  0  0  0  0  0  0  0  0  0
    2.7318   -0.1348    0.8780 C   0  0  0  0  0  0  0  0  0  0  0  0
    4.2150   -0.3462    1.0576 C   0  0  0  0  0  0  0  0  0  0  0  0
    4.7120   -1.4745    0.3749 O   0  0  0  0  0  0  0  0  0  0  0  0
    2.1140   -0.4793   -0.3139 C   0  0  0  0  0  0  0  0  0  0  0  0
    0.7549   -0.2923   -0.5002 C   0  0  0  0  0  0  0  0  0  0  0  0
   -3.9640    0.7758   -2.6395 H   0  0  0  0  0  0  0  0  0  0  0  0
   -4.3040   -0.8309   -1.9954 H   0  0  0  0  0  0  0  0  0  0  0  0
   -5.3762    0.5170   -1.6150 H   0  0  0  0  0  0  0  0  0  0  0  0
   -3.5629    1.6196   -0.3150 H   0  0  0  0  0  0  0  0  0  0  0  0
   -3.8956    0.0113    0.3249 H   0  0  0  0  0  0  0  0  0  0  0  0
   -1.9621   -0.9034   -0.9485 H   0  0  0  0  0  0  0  0  0  0  0  0
   -1.6226    0.7299   -1.5837 H   0  0  0  0  0  0  0  0  0  0  0  0
   -0.0035    1.0297    2.5051 H   0  0  0  0  0  0  0  0  0  0  0  0
    2.4199    0.6831    2.8336 H   0  0  0  0  0  0  0  0  0  0  0  0
    4.7649    0.5048    0.6407 H   0  0  0  0  0  0  0  0  0  0  0  0
    4.4518   -0.4092    2.1305 H   0  0  0  0  0  0  0  0  0  0  0  0
    4.2056   -2.2462    0.6516 H   0  0  0  0  0  0  0  0  0  0  0  0
    2.7086   -0.9020   -1.1108 H   0  0  0  0  0  0  0  0  0  0  0  0
    0.3121   -0.5754   -1.4421 H   0  0  0  0  0  0  0  0  0  0  0  0
  1  2  1  0  0  0  0
  2  3  1  0  0  0  0
  3  4  1  0  0  0  0
  4  5  1  0  0  0  0
  5  6  4  0  0  0  0
  6  7  4  0  0  0  0
  7  8  4  0  0  0  0
  8  9  1  0  0  0  0
  9 10  1  0  0  0  0
  8 11  4  0  0  0  0
  5 12  4  0  0  0  0
 11 12  4  0  0  0  0
  1 13  1  0  0  0  0
  1 14  1  0  0  0  0
  1 15  1  0  0  0  0
  2 16  1  0  0  0  0
  2 17  1  0  0  0  0
  3 18  1  0  0  0  0
  3 19  1  0  0  0  0
  6 20  1  0  0  0  0
  7 21  1  0  0  0  0
  9 22  1  0  0  0  0
  9 23  1  0  0  0  0
 10 24  1  0  0  0  0
 11 25  1  0  0  0  0
 12 26  1  0  0  0  0
M  END
