 xtb: 6.7.1 (edcfbbe)
          07082613233D

 18 18  0     0  0            999 V2000
    4.2828   -0.3653    1.8515 O   0  0  0  0  0  0  0  0  0  0  0  0
    3.5119   -0.5292    0.9370 C   0  0  0  0  0  0  0  0  0  0  0  0
    2.1064   -0.1632    0.9523 C   0  0  0  0  0  0  0  0  0  0  0  0
    1.3078   -0.3768   -0.1059 C   0  0  0  0  0  0  0  0  0  0  0  0
   -0.1007   -0.0618   -0.2217 C   0  0  0  0  0  0  0  0  0  0  0  0
   -0.7625   -0.3639   -1.4167 C   0  0  0  0  0  0  0  0  0  0  0  0
   -2.1050   -0.0829   -1.5757 C   0  0  0  0  0  0  0  0  0  0  0  0
   -2.8171    0.5067   -0.5436 C   0  0  0  0  0  0  0  0  0  0  0  0
   -2.1763    0.8126    0.6473 C   0  0  0  0  0  0  0  0  0  0  0  0
   -0.8343    0.5330    0.8098 C   0  0  0  0  0  0  0  0  0  0  0  0
    3.8480   -0.9911   -0.0143 H   0  0  0  0  0  0  0  0  0  0  0  0
    1.7501    0.2891    1.8660 H   0  0  0  0  0  0  0  0  0  0  0  0
    1.7465   -0.8366   -0.9855 H   0  0  0  0  0  0  0  0  0  0  0  0
   -0.2111   -0.8239   -2.2246 H   0  0  0  0  0  0  0  0  0  0  0  0
   -2.5993   -0.3232   -2.5054 H   0  0  0  0  0  0  0  0  0  0  0  0
   -3.8670    0.7272   -0.6660 H   0  0  0  0  0  0  0  0  0  0  0  0
   -2.7294    1.2721    1.4531 H   0  0  0  0  0  0  0  0  0  0  0  0
   -0.3508    0.7772    1.7424 H   0  0  0  0  0  0  0  0  0  0  0  0
  1  2  2  0  0  0  0
  2  3  1  0  0  0  0
  3  4  2  0  0  0  0
  4  5  1  0  0  0  0
  5  6  4  0  0  0  0
  6  7  4  0  0  0  0
  7  8  4  0  0  0  0
  8  9  4  0  0  0  0
  5 10  4  0  0  0  0
  9 10  4  0  0  0  0
  2 11  1  0  0  0  0
  3 12  1  0  0  0  0
  4 13  1  0  0  0  0
  6 14  1  0  0  0  0
  7 15  1  0  0  0  0
  8 16  1  0  0  0  0
  9 17  1  0  0  0  0
 10 18  1  0  0  0  0
M  END
