 xtb: 6.7.1 (edcfbbe)
          07082618413D

 13 13  0     0  0            999 V2000
   -2.4150   -0.2096    0.7365 O   0  0  0  0  0  0  0  0  0  0  0  0
   -1.7035    0.2497   -0.3926 C   0  0  0  0  0  0  0  0  0  0  0  0
   -0.2229    0.1063   -0.2384 C   0  0  0  0  0  0  0  0  0  0  0  0
    0.7711    1.0205   -0.0539 C   0  0  0  0  0  0  0  0  0  0  0  0
    1.9763    0.2823    0.0464 C   0  0  0  0  0  0  0  0  0  0  0  0
    1.6246   -1.0240   -0.0790 C   0  0  0  0  0  0  0  0  0  0  0  0
    0.2975   -1.1437   -0.2518 O   0  0  0  0  0  0  0  0  0  0  0  0
   -2.1595   -1.1238    0.9062 H   0  0  0  0  0  0  0  0  0  0  0  0
   -2.0318   -0.2919   -1.2935 H   0  0  0  0  0  0  0  0  0  0  0  0
   -1.9569    1.3056   -0.4997 H   0  0  0  0  0  0  0  0  0  0  0  0
    0.6596    2.0835    0.0019 H   0  0  0  0  0  0  0  0  0  0  0  0
    2.9616    0.6740    0.1930 H   0  0  0  0  0  0  0  0  0  0  0  0
    2.1988   -1.9289   -0.0621 H   0  0  0  0  0  0  0  0  0  0  0  0
  1  2  1  0  0  0  0
  2  3  1  0  0  0  0
  3  4  2  0  0  0  0
  4  5  4  0  0  0  0
  5  6  2  0  0  0  0
  3  7  1  0  0  0  0
  6  7  1  0  0  0  0
  1  8  1  0  0  0  0
  2  9  1  0  0  0  0
  2 10  1  0  0  0  0
  4 11  1  0  0  0  0
  5 12  1  0  0  0  0
  6 13  1  0  0  0  0
M  END
