 xtb: 6.7.1 (edcfbbe)
          07072611113D

 34 33  0     0  0            999 V2000
    4.4754   -0.0628   -0.6108 C   0  0  0  0  0  0  0  0  0  0  0  0
    3.3488    0.0067    0.4125 C   0  0  0  0  0  0  0  0  0  0  0  0
    1.9756   -0.0541   -0.2539 C   0  0  0  0  0  0  0  0  0  0  0  0
    0.8511    0.0029    0.7791 C   0  0  0  0  0  0  0  0  0  0  0  0
   -0.5622    0.1307    0.1719 C   0  0  0  0  0  0  0  0  0  0  0  0
   -0.5868    1.4321   -0.6049 C   0  0  0  0  0  0  0  0  0  0  0  0
   -0.9068    1.5579   -1.7539 O   0  0  0  0  0  0  0  0  0  0  0  0
   -0.9141   -1.0238   -0.7790 C   0  0  0  0  0  0  0  0  0  0  0  0
   -0.9375   -2.4052   -0.1369 C   0  0  0  0  0  0  0  0  0  0  0  0
   -1.5540    0.2665    1.3488 C   0  0  0  0  0  0  0  0  0  0  0  0
   -3.0285    0.3388    0.9405 C   0  0  0  0  0  0  0  0  0  0  0  0
   -3.2826    1.5506    0.0762 C   0  0  0  0  0  0  0  0  0  0  0  0
   -2.9963    2.6790    0.3763 O   0  0  0  0  0  0  0  0  0  0  0  0
   -3.8722    1.2308   -1.0759 O   0  0  0  0  0  0  0  0  0  0  0  0
    4.4213   -0.9903   -1.1763 H   0  0  0  0  0  0  0  0  0  0  0  0
    5.4437   -0.0170   -0.1184 H   0  0  0  0  0  0  0  0  0  0  0  0
    4.4056    0.7676   -1.3097 H   0  0  0  0  0  0  0  0  0  0  0  0
    3.4345    0.9346    0.9825 H   0  0  0  0  0  0  0  0  0  0  0  0
    3.4448   -0.8235    1.1162 H   0  0  0  0  0  0  0  0  0  0  0  0
    1.9081   -0.9773   -0.8312 H   0  0  0  0  0  0  0  0  0  0  0  0
    1.8751    0.7821   -0.9502 H   0  0  0  0  0  0  0  0  0  0  0  0
    1.0200    0.8656    1.4294 H   0  0  0  0  0  0  0  0  0  0  0  0
    0.8908   -0.8878    1.4087 H   0  0  0  0  0  0  0  0  0  0  0  0
   -0.2621    2.3045   -0.0053 H   0  0  0  0  0  0  0  0  0  0  0  0
   -0.1916   -1.0194   -1.5963 H   0  0  0  0  0  0  0  0  0  0  0  0
   -1.8849   -0.8135   -1.2301 H   0  0  0  0  0  0  0  0  0  0  0  0
   -1.6710   -2.4617    0.6633 H   0  0  0  0  0  0  0  0  0  0  0  0
    0.0363   -2.6685    0.2679 H   0  0  0  0  0  0  0  0  0  0  0  0
   -1.2004   -3.1486   -0.8860 H   0  0  0  0  0  0  0  0  0  0  0  0
   -1.3113    1.1784    1.8996 H   0  0  0  0  0  0  0  0  0  0  0  0
   -1.4156   -0.5793    2.0238 H   0  0  0  0  0  0  0  0  0  0  0  0
   -3.6318    0.4458    1.8450 H   0  0  0  0  0  0  0  0  0  0  0  0
   -3.3503   -0.5543    0.4088 H   0  0  0  0  0  0  0  0  0  0  0  0
   -3.9712    2.0123   -1.6431 H   0  0  0  0  0  0  0  0  0  0  0  0
  1  2  1  0  0  0  0
  2  3  1  0  0  0  0
  3  4  1  0  0  0  0
  4  5  1  0  0  0  0
  5  6  1  0  0  0  0
  6  7  2  0  0  0  0
  5  8  1  0  0  0  0
  8  9  1  0  0  0  0
  5 10  1  0  0  0  0
 10 11  1  0  0  0  0
 11 12  1  0  0  0  0
 12 13  2  0  0  0  0
 12 14  1  0  0  0  0
  1 15  1  0  0  0  0
  1 16  1  0  0  0  0
  1 17  1  0  0  0  0
  2 18  1  0  0  0  0
  2 19  1  0  0  0  0
  3 20  1  0  0  0  0
  3 21  1  0  0  0  0
  4 22  1  0  0  0  0
  4 23  1  0  0  0  0
  6 24  1  0  0  0  0
  8 25  1  0  0  0  0
  8 26  1  0  0  0  0
  9 27  1  0  0  0  0
  9 28  1  0  0  0  0
  9 29  1  0  0  0  0
 10 30  1  0  0  0  0
 10 31  1  0  0  0  0
 11 32  1  0  0  0  0
 11 33  1  0  0  0  0
 14 34  1  0  0  0  0
M  END
