 xtb: 6.7.1 (edcfbbe)
          07082604313D

 24 24  0     0  0            999 V2000
    3.4274    1.4524   -0.9154 C   0  0  0  0  0  0  0  0  0  0  0  0
    2.9723    0.2645   -0.5328 C   0  0  0  0  0  0  0  0  0  0  0  0
    1.5942   -0.0963   -0.2324 C   0  0  0  0  0  0  0  0  0  0  0  0
    1.2916   -1.4157    0.0783 C   0  0  0  0  0  0  0  0  0  0  0  0
   -0.0067   -1.8062    0.3640 C   0  0  0  0  0  0  0  0  0  0  0  0
   -1.0391   -0.8841    0.3498 C   0  0  0  0  0  0  0  0  0  0  0  0
   -2.3462   -1.1584    0.6133 O   0  0  0  0  0  0  0  0  0  0  0  0
   -2.6993   -2.4814    0.9269 C   0  0  0  0  0  0  0  0  0  0  0  0
   -0.7477    0.4652    0.0413 C   0  0  0  0  0  0  0  0  0  0  0  0
   -1.8197    1.3082    0.0538 O   0  0  0  0  0  0  0  0  0  0  0  0
   -1.6051    2.6653   -0.2365 C   0  0  0  0  0  0  0  0  0  0  0  0
    0.5502    0.8367   -0.2428 C   0  0  0  0  0  0  0  0  0  0  0  0
    2.7902    2.3098   -1.0480 H   0  0  0  0  0  0  0  0  0  0  0  0
    4.4730    1.6117   -1.1159 H   0  0  0  0  0  0  0  0  0  0  0  0
    3.6770   -0.5520   -0.4290 H   0  0  0  0  0  0  0  0  0  0  0  0
    2.0782   -2.1558    0.0960 H   0  0  0  0  0  0  0  0  0  0  0  0
   -0.2014   -2.8407    0.5984 H   0  0  0  0  0  0  0  0  0  0  0  0
   -2.4718   -3.1667    0.1032 H   0  0  0  0  0  0  0  0  0  0  0  0
   -2.1973   -2.8291    1.8363 H   0  0  0  0  0  0  0  0  0  0  0  0
   -3.7752   -2.4663    1.0943 H   0  0  0  0  0  0  0  0  0  0  0  0
   -1.2061    2.8051   -1.2471 H   0  0  0  0  0  0  0  0  0  0  0  0
   -2.5839    3.1378   -0.1693 H   0  0  0  0  0  0  0  0  0  0  0  0
   -0.9289    3.1319    0.4882 H   0  0  0  0  0  0  0  0  0  0  0  0
    0.7743    1.8642   -0.4746 H   0  0  0  0  0  0  0  0  0  0  0  0
  1  2  2  0  0  0  0
  2  3  1  0  0  0  0
  3  4  4  0  0  0  0
  4  5  4  0  0  0  0
  5  6  4  0  0  0  0
  6  7  1  0  0  0  0
  7  8  1  0  0  0  0
  6  9  4  0  0  0  0
  9 10  1  0  0  0  0
 10 11  1  0  0  0  0
  3 12  4  0  0  0  0
  9 12  4  0  0  0  0
  1 13  1  0  0  0  0
  1 14  1  0  0  0  0
  2 15  1  0  0  0  0
  4 16  1  0  0  0  0
  5 17  1  0  0  0  0
  8 18  1  0  0  0  0
  8 19  1  0  0  0  0
  8 20  1  0  0  0  0
 11 21  1  0  0  0  0
 11 22  1  0  0  0  0
 11 23  1  0  0  0  0
 12 24  1  0  0  0  0
M  END
