 xtb: 6.7.1 (edcfbbe)
          07092602543D

 28 27  0     0  0            999 V2000
    2.2009    0.9664   -1.2408 C   0  0  0  0  0  0  0  0  0  0  0  0
    1.3139    0.3124   -0.1710 C   0  0  0  0  0  0  0  0  0  0  0  0
    1.2403    1.2679    1.0204 C   0  0  0  0  0  0  0  0  0  0  0  0
    1.9730   -1.0120    0.2467 C   0  0  0  0  0  0  0  0  0  0  0  0
   -0.0336   -0.0232   -0.8380 C   0  0  0  0  0  0  0  0  0  0  0  0
   -0.0819   -0.0567   -2.0446 O   0  0  0  0  0  0  0  0  0  0  0  0
   -1.3227   -0.3185   -0.0479 C   0  0  0  0  0  0  0  0  0  0  0  0
   -2.2909   -1.0286   -1.0055 C   0  0  0  0  0  0  0  0  0  0  0  0
   -1.9492    1.0285    0.3474 C   0  0  0  0  0  0  0  0  0  0  0  0
   -1.1520   -1.2068    1.1848 C   0  0  0  0  0  0  0  0  0  0  0  0
    3.1814    1.1918   -0.8286 H   0  0  0  0  0  0  0  0  0  0  0  0
    1.7495    1.8902   -1.5952 H   0  0  0  0  0  0  0  0  0  0  0  0
    2.3217    0.3029   -2.0923 H   0  0  0  0  0  0  0  0  0  0  0  0
    0.7939    2.2142    0.7247 H   0  0  0  0  0  0  0  0  0  0  0  0
    0.6813    0.8574    1.8548 H   0  0  0  0  0  0  0  0  0  0  0  0
    2.2516    1.4694    1.3704 H   0  0  0  0  0  0  0  0  0  0  0  0
    3.0178   -0.8319    0.4923 H   0  0  0  0  0  0  0  0  0  0  0  0
    1.9340   -1.7282   -0.5712 H   0  0  0  0  0  0  0  0  0  0  0  0
    1.4917   -1.4477    1.1158 H   0  0  0  0  0  0  0  0  0  0  0  0
   -2.4808   -0.4130   -1.8801 H   0  0  0  0  0  0  0  0  0  0  0  0
   -3.2348   -1.2287   -0.5044 H   0  0  0  0  0  0  0  0  0  0  0  0
   -1.8673   -1.9716   -1.3433 H   0  0  0  0  0  0  0  0  0  0  0  0
   -1.9773    1.6983   -0.5095 H   0  0  0  0  0  0  0  0  0  0  0  0
   -1.4009    1.5105    1.1497 H   0  0  0  0  0  0  0  0  0  0  0  0
   -2.9706    0.8645    0.6852 H   0  0  0  0  0  0  0  0  0  0  0  0
   -0.7285   -2.1690    0.9071 H   0  0  0  0  0  0  0  0  0  0  0  0
   -2.1316   -1.3864    1.6251 H   0  0  0  0  0  0  0  0  0  0  0  0
   -0.5289   -0.7521    1.9479 H   0  0  0  0  0  0  0  0  0  0  0  0
  1  2  1  0  0  0  0
  2  3  1  0  0  0  0
  2  4  1  0  0  0  0
  2  5  1  0  0  0  0
  5  6  2  0  0  0  0
  5  7  1  0  0  0  0
  7  8  1  0  0  0  0
  7  9  1  0  0  0  0
  7 10  1  0  0  0  0
  1 11  1  0  0  0  0
  1 12  1  0  0  0  0
  1 13  1  0  0  0  0
  3 14  1  0  0  0  0
  3 15  1  0  0  0  0
  3 16  1  0  0  0  0
  4 17  1  0  0  0  0
  4 18  1  0  0  0  0
  4 19  1  0  0  0  0
  8 20  1  0  0  0  0
  8 21  1  0  0  0  0
  8 22  1  0  0  0  0
  9 23  1  0  0  0  0
  9 24  1  0  0  0  0
  9 25  1  0  0  0  0
 10 26  1  0  0  0  0
 10 27  1  0  0  0  0
 10 28  1  0  0  0  0
M  END
