 xtb: 6.7.1 (edcfbbe)
          07062623193D

 39 38  0     0  0            999 V2000
   -5.7369    0.9440   -1.2600 C   0  0  0  0  0  0  0  0  0  0  0  0
   -4.8074   -0.0325   -0.5523 C   0  0  0  0  0  0  0  0  0  0  0  0
   -3.5896    0.6764    0.0323 C   0  0  0  0  0  0  0  0  0  0  0  0
   -2.6751   -0.2789    0.7636 C   0  0  0  0  0  0  0  0  0  0  0  0
   -2.8670   -1.4571    0.9090 O   0  0  0  0  0  0  0  0  0  0  0  0
   -1.6031    0.3671    1.2423 O   0  0  0  0  0  0  0  0  0  0  0  0
   -0.6654   -0.4021    1.9950 C   0  0  0  0  0  0  0  0  0  0  0  0
    0.2654   -1.2314    1.1055 C   0  0  0  0  0  0  0  0  0  0  0  0
    1.1104   -0.3989    0.2712 N   0  0  0  0  0  0  0  0  0  0  0  0
    0.6826   -0.1783   -1.0932 C   0  0  0  0  0  0  0  0  0  0  0  0
    1.1551   -1.2893   -2.0320 C   0  0  0  0  0  0  0  0  0  0  0  0
    2.2372    0.1030    0.8413 C   0  0  0  0  0  0  0  0  0  0  0  0
    2.4926   -0.1198    2.0100 O   0  0  0  0  0  0  0  0  0  0  0  0
    3.1312    0.9593   -0.0421 C   0  0  0  0  0  0  0  0  0  0  0  0
    4.4896    1.2078    0.6135 C   0  0  0  0  0  0  0  0  0  0  0  0
    5.3504   -0.0489    0.6184 C   0  0  0  0  0  0  0  0  0  0  0  0
   -5.2207    1.4420   -2.0781 H   0  0  0  0  0  0  0  0  0  0  0  0
   -6.0938    1.7034   -0.5677 H   0  0  0  0  0  0  0  0  0  0  0  0
   -6.5979    0.4202   -1.6668 H   0  0  0  0  0  0  0  0  0  0  0  0
   -5.3424   -0.5381    0.2529 H   0  0  0  0  0  0  0  0  0  0  0  0
   -4.4726   -0.8005   -1.2516 H   0  0  0  0  0  0  0  0  0  0  0  0
   -3.8967    1.4495    0.7405 H   0  0  0  0  0  0  0  0  0  0  0  0
   -3.0122    1.1712   -0.7523 H   0  0  0  0  0  0  0  0  0  0  0  0
   -1.2090   -1.0730    2.6673 H   0  0  0  0  0  0  0  0  0  0  0  0
   -0.0843    0.3217    2.5669 H   0  0  0  0  0  0  0  0  0  0  0  0
    0.9072   -1.8212    1.7654 H   0  0  0  0  0  0  0  0  0  0  0  0
   -0.3230   -1.8991    0.4756 H   0  0  0  0  0  0  0  0  0  0  0  0
    1.0485    0.7886   -1.4413 H   0  0  0  0  0  0  0  0  0  0  0  0
   -0.4098   -0.1379   -1.1013 H   0  0  0  0  0  0  0  0  0  0  0  0
    2.2399   -1.3592   -2.0309 H   0  0  0  0  0  0  0  0  0  0  0  0
    0.7533   -2.2495   -1.7182 H   0  0  0  0  0  0  0  0  0  0  0  0
    0.8188   -1.0875   -3.0455 H   0  0  0  0  0  0  0  0  0  0  0  0
    2.6221    1.9140   -0.2033 H   0  0  0  0  0  0  0  0  0  0  0  0
    3.2766    0.4791   -1.0102 H   0  0  0  0  0  0  0  0  0  0  0  0
    5.0052    2.0056    0.0740 H   0  0  0  0  0  0  0  0  0  0  0  0
    4.3279    1.5348    1.6413 H   0  0  0  0  0  0  0  0  0  0  0  0
    5.5232   -0.4036   -0.3967 H   0  0  0  0  0  0  0  0  0  0  0  0
    6.3138    0.1526    1.0802 H   0  0  0  0  0  0  0  0  0  0  0  0
    4.8559   -0.8336    1.1844 H   0  0  0  0  0  0  0  0  0  0  0  0
  1  2  1  0  0  0  0
  2  3  1  0  0  0  0
  3  4  1  0  0  0  0
  4  5  2  0  0  0  0
  4  6  1  0  0  0  0
  6  7  1  0  0  0  0
  7  8  1  0  0  0  0
  8  9  1  0  0  0  0
  9 10  1  0  0  0  0
 10 11  1  0  0  0  0
  9 12  4  0  0  0  0
 12 13  2  0  0  0  0
 12 14  1  0  0  0  0
 14 15  1  0  0  0  0
 15 16  1  0  0  0  0
  1 17  1  0  0  0  0
  1 18  1  0  0  0  0
  1 19  1  0  0  0  0
  2 20  1  0  0  0  0
  2 21  1  0  0  0  0
  3 22  1  0  0  0  0
  3 23  1  0  0  0  0
  7 24  1  0  0  0  0
  7 25  1  0  0  0  0
  8 26  1  0  0  0  0
  8 27  1  0  0  0  0
 10 28  1  0  0  0  0
 10 29  1  0  0  0  0
 11 30  1  0  0  0  0
 11 31  1  0  0  0  0
 11 32  1  0  0  0  0
 14 33  1  0  0  0  0
 14 34  1  0  0  0  0
 15 35  1  0  0  0  0
 15 36  1  0  0  0  0
 16 37  1  0  0  0  0
 16 38  1  0  0  0  0
 16 39  1  0  0  0  0
M  END
