 xtb: 6.7.1 (edcfbbe)
          07082619273D

 20 19  0     0  0            999 V2000
   -2.2944    0.4168   -1.7572 C   0  0  0  0  0  0  0  0  0  0  0  0
   -1.4908   -0.0069   -0.5336 C   0  0  0  0  0  0  0  0  0  0  0  0
   -0.0692   -0.3603   -0.8861 C   0  0  0  0  0  0  0  0  0  0  0  0
    0.4491   -0.0889   -1.9431 O   0  0  0  0  0  0  0  0  0  0  0  0
    0.7398   -1.1031    0.1747 C   0  0  0  0  0  0  0  0  0  0  0  0
    1.9835   -1.4712   -0.3548 O   0  0  0  0  0  0  0  0  0  0  0  0
    0.9139   -0.2490    1.4476 C   0  0  0  0  0  0  0  0  0  0  0  0
    1.5998    1.0791    1.1511 C   0  0  0  0  0  0  0  0  0  0  0  0
   -1.8107    1.2560   -2.2502 H   0  0  0  0  0  0  0  0  0  0  0  0
   -3.3007    0.7089   -1.4686 H   0  0  0  0  0  0  0  0  0  0  0  0
   -2.3572   -0.4023   -2.4692 H   0  0  0  0  0  0  0  0  0  0  0  0
   -1.9573   -0.8579   -0.0339 H   0  0  0  0  0  0  0  0  0  0  0  0
   -1.4551    0.8147    0.1871 H   0  0  0  0  0  0  0  0  0  0  0  0
    0.1947   -2.0217    0.4424 H   0  0  0  0  0  0  0  0  0  0  0  0
    2.0596   -1.0257   -1.2165 H   0  0  0  0  0  0  0  0  0  0  0  0
    1.5298   -0.8246    2.1400 H   0  0  0  0  0  0  0  0  0  0  0  0
   -0.0612   -0.0880    1.9093 H   0  0  0  0  0  0  0  0  0  0  0  0
    1.0056    1.6868    0.4711 H   0  0  0  0  0  0  0  0  0  0  0  0
    1.7517    1.6381    2.0712 H   0  0  0  0  0  0  0  0  0  0  0  0
    2.5692    0.8990    0.6933 H   0  0  0  0  0  0  0  0  0  0  0  0
  1  2  1  0  0  0  0
  2  3  1  0  0  0  0
  3  4  2  0  0  0  0
  3  5  1  0  0  0  0
  5  6  1  0  0  0  0
  5  7  1  0  0  0  0
  7  8  1  0  0  0  0
  1  9  1  0  0  0  0
  1 10  1  0  0  0  0
  1 11  1  0  0  0  0
  2 12  1  0  0  0  0
  2 13  1  0  0  0  0
  5 14  1  0  0  0  0
  6 15  1  0  0  0  0
  7 16  1  0  0  0  0
  7 17  1  0  0  0  0
  8 18  1  0  0  0  0
  8 19  1  0  0  0  0
  8 20  1  0  0  0  0
M  END
