 xtb: 6.7.1 (edcfbbe)
          07062623013D

 39 39  0     0  0            999 V2000
    3.9391    1.1937    0.9960 C   0  0  0  0  0  0  0  0  0  0  0  0
    3.7782   -0.3217    0.9929 C   0  0  0  0  0  0  0  0  0  0  0  0
    2.3595   -0.7508    1.3614 C   0  0  0  0  0  0  0  0  0  0  0  0
    2.2320   -2.2637    1.5119 C   0  0  0  0  0  0  0  0  0  0  0  0
    1.4935   -0.3006    0.3080 O   0  0  0  0  0  0  0  0  0  0  0  0
    0.2138   -0.0756    0.6466 C   0  0  0  0  0  0  0  0  0  0  0  0
   -0.2095   -0.1691    1.7858 O   0  0  0  0  0  0  0  0  0  0  0  0
   -0.5601    0.2769   -0.3994 N   0  0  0  0  0  0  0  0  0  0  0  0
   -0.0988    0.2487   -1.7715 C   0  0  0  0  0  0  0  0  0  0  0  0
   -0.4936    1.5277   -2.5044 C   0  0  0  0  0  0  0  0  0  0  0  0
   -2.0005    1.7319   -2.3981 C   0  0  0  0  0  0  0  0  0  0  0  0
   -2.3836    1.8080   -0.9246 C   0  0  0  0  0  0  0  0  0  0  0  0
   -1.9742    0.5399   -0.1672 C   0  0  0  0  0  0  0  0  0  0  0  0
   -2.8529   -0.6791   -0.5126 C   0  0  0  0  0  0  0  0  0  0  0  0
   -3.2067   -1.5258    0.7193 C   0  0  0  0  0  0  0  0  0  0  0  0
   -2.1122   -2.1823    1.2941 O   0  0  0  0  0  0  0  0  0  0  0  0
    3.2415    1.6472    0.2962 H   0  0  0  0  0  0  0  0  0  0  0  0
    4.9500    1.4688    0.7051 H   0  0  0  0  0  0  0  0  0  0  0  0
    3.7428    1.5954    1.9877 H   0  0  0  0  0  0  0  0  0  0  0  0
    4.0103   -0.7153    0.0016 H   0  0  0  0  0  0  0  0  0  0  0  0
    4.4678   -0.7696    1.7095 H   0  0  0  0  0  0  0  0  0  0  0  0
    2.0424   -0.2632    2.2919 H   0  0  0  0  0  0  0  0  0  0  0  0
    2.5217   -2.7566    0.5865 H   0  0  0  0  0  0  0  0  0  0  0  0
    1.2029   -2.5276    1.7443 H   0  0  0  0  0  0  0  0  0  0  0  0
    2.8727   -2.6112    2.3173 H   0  0  0  0  0  0  0  0  0  0  0  0
   -0.5398   -0.6136   -2.2879 H   0  0  0  0  0  0  0  0  0  0  0  0
    0.9834    0.1265   -1.7647 H   0  0  0  0  0  0  0  0  0  0  0  0
    0.0216    2.3791   -2.0553 H   0  0  0  0  0  0  0  0  0  0  0  0
   -0.1847    1.4522   -3.5478 H   0  0  0  0  0  0  0  0  0  0  0  0
   -2.5199    0.8998   -2.8770 H   0  0  0  0  0  0  0  0  0  0  0  0
   -2.2947    2.6515   -2.9068 H   0  0  0  0  0  0  0  0  0  0  0  0
   -1.8754    2.6631   -0.4728 H   0  0  0  0  0  0  0  0  0  0  0  0
   -3.4578    1.9587   -0.8107 H   0  0  0  0  0  0  0  0  0  0  0  0
   -2.0701    0.7416    0.9062 H   0  0  0  0  0  0  0  0  0  0  0  0
   -2.3393   -1.3194   -1.2304 H   0  0  0  0  0  0  0  0  0  0  0  0
   -3.7860   -0.3419   -0.9658 H   0  0  0  0  0  0  0  0  0  0  0  0
   -3.8996   -2.3178    0.4188 H   0  0  0  0  0  0  0  0  0  0  0  0
   -3.7132   -0.8891    1.4607 H   0  0  0  0  0  0  0  0  0  0  0  0
   -1.5004   -1.5168    1.6551 H   0  0  0  0  0  0  0  0  0  0  0  0
  1  2  1  0  0  0  0
  2  3  1  0  0  0  0
  3  4  1  0  0  0  0
  3  5  1  0  0  0  0
  5  6  1  0  0  0  0
  6  7  2  0  0  0  0
  6  8  4  0  0  0  0
  8  9  1  0  0  0  0
  9 10  1  0  0  0  0
 10 11  1  0  0  0  0
 11 12  1  0  0  0  0
  8 13  1  0  0  0  0
 12 13  1  0  0  0  0
 13 14  1  0  0  0  0
 14 15  1  0  0  0  0
 15 16  1  0  0  0  0
  1 17  1  0  0  0  0
  1 18  1  0  0  0  0
  1 19  1  0  0  0  0
  2 20  1  0  0  0  0
  2 21  1  0  0  0  0
  3 22  1  0  0  0  0
  4 23  1  0  0  0  0
  4 24  1  0  0  0  0
  4 25  1  0  0  0  0
  9 26  1  0  0  0  0
  9 27  1  0  0  0  0
 10 28  1  0  0  0  0
 10 29  1  0  0  0  0
 11 30  1  0  0  0  0
 11 31  1  0  0  0  0
 12 32  1  0  0  0  0
 12 33  1  0  0  0  0
 13 34  1  0  0  0  0
 14 35  1  0  0  0  0
 14 36  1  0  0  0  0
 15 37  1  0  0  0  0
 15 38  1  0  0  0  0
 16 39  1  0  0  0  0
M  END
