 xtb: 6.7.1 (edcfbbe)
          07092621003D

 26 25  0     0  0            999 V2000
   -4.8604   -0.3260    0.3183 C   0  0  0  0  0  0  0  0  0  0  0  0
   -3.5956    0.2923   -0.2617 C   0  0  0  0  0  0  0  0  0  0  0  0
   -2.4403   -0.7053   -0.2435 C   0  0  0  0  0  0  0  0  0  0  0  0
   -1.2695   -0.1612   -0.8568 O   0  0  0  0  0  0  0  0  0  0  0  0
   -0.4672    0.5749   -0.0966 C   0  0  0  0  0  0  0  0  0  0  0  0
   -0.6552    0.8300    1.0615 O   0  0  0  0  0  0  0  0  0  0  0  0
    0.7538    1.0219   -0.8880 C   0  0  0  0  0  0  0  0  0  0  0  0
    1.8761    0.0524   -0.5453 C   0  0  0  0  0  0  0  0  0  0  0  0
    1.9950   -1.0436   -1.0208 O   0  0  0  0  0  0  0  0  0  0  0  0
    2.6785    0.5769    0.3739 O   0  0  0  0  0  0  0  0  0  0  0  0
    3.7594   -0.2345    0.8439 C   0  0  0  0  0  0  0  0  0  0  0  0
    4.9648   -0.1409   -0.0799 C   0  0  0  0  0  0  0  0  0  0  0  0
   -5.6735    0.3948    0.2994 H   0  0  0  0  0  0  0  0  0  0  0  0
   -5.1596   -1.1987   -0.2577 H   0  0  0  0  0  0  0  0  0  0  0  0
   -4.6962   -0.6327    1.3484 H   0  0  0  0  0  0  0  0  0  0  0  0
   -3.7716    0.6098   -1.2916 H   0  0  0  0  0  0  0  0  0  0  0  0
   -3.3099    1.1693    0.3221 H   0  0  0  0  0  0  0  0  0  0  0  0
   -2.6823   -1.5948   -0.8287 H   0  0  0  0  0  0  0  0  0  0  0  0
   -2.2046   -0.9899    0.7871 H   0  0  0  0  0  0  0  0  0  0  0  0
    1.0389    2.0254   -0.5791 H   0  0  0  0  0  0  0  0  0  0  0  0
    0.5343    0.9600   -1.9519 H   0  0  0  0  0  0  0  0  0  0  0  0
    3.4171   -1.2716    0.9176 H   0  0  0  0  0  0  0  0  0  0  0  0
    3.9907    0.1542    1.8373 H   0  0  0  0  0  0  0  0  0  0  0  0
    5.2744    0.8954   -0.1911 H   0  0  0  0  0  0  0  0  0  0  0  0
    5.7875   -0.7146    0.3369 H   0  0  0  0  0  0  0  0  0  0  0  0
    4.7153   -0.5434   -1.0586 H   0  0  0  0  0  0  0  0  0  0  0  0
  1  2  1  0  0  0  0
  2  3  1  0  0  0  0
  3  4  1  0  0  0  0
  4  5  1  0  0  0  0
  5  6  2  0  0  0  0
  5  7  1  0  0  0  0
  7  8  1  0  0  0  0
  8  9  2  0  0  0  0
  8 10  1  0  0  0  0
 10 11  1  0  0  0  0
 11 12  1  0  0  0  0
  1 13  1  0  0  0  0
  1 14  1  0  0  0  0
  1 15  1  0  0  0  0
  2 16  1  0  0  0  0
  2 17  1  0  0  0  0
  3 18  1  0  0  0  0
  3 19  1  0  0  0  0
  7 20  1  0  0  0  0
  7 21  1  0  0  0  0
 11 22  1  0  0  0  0
 11 23  1  0  0  0  0
 12 24  1  0  0  0  0
 12 25  1  0  0  0  0
 12 26  1  0  0  0  0
M  END
