 xtb: 6.7.1 (edcfbbe)
          07092605053D

 21 22  0     0  0            999 V2000
    3.0983   -1.4960   -0.2289 C   0  0  0  0  0  0  0  0  0  0  0  0
    1.9059   -0.6110   -0.2818 C   0  0  0  0  0  0  0  0  0  0  0  0
    1.7402    0.6314   -0.7996 C   0  0  0  0  0  0  0  0  0  0  0  0
    0.3776    0.9920   -0.5634 C   0  0  0  0  0  0  0  0  0  0  0  0
   -0.4110    2.1056   -0.8394 C   0  0  0  0  0  0  0  0  0  0  0  0
   -1.7292    2.0766   -0.4385 C   0  0  0  0  0  0  0  0  0  0  0  0
   -2.2659    0.9729    0.2226 C   0  0  0  0  0  0  0  0  0  0  0  0
   -1.5113   -0.1526    0.5140 C   0  0  0  0  0  0  0  0  0  0  0  0
   -2.0838   -1.3409    1.2242 C   0  0  0  0  0  0  0  0  0  0  0  0
   -0.1835   -0.1132    0.1056 C   0  0  0  0  0  0  0  0  0  0  0  0
    0.7537   -1.0814    0.2715 O   0  0  0  0  0  0  0  0  0  0  0  0
    3.9436   -1.0050   -0.7013 H   0  0  0  0  0  0  0  0  0  0  0  0
    3.3499   -1.7291    0.8052 H   0  0  0  0  0  0  0  0  0  0  0  0
    2.8948   -2.4349   -0.7426 H   0  0  0  0  0  0  0  0  0  0  0  0
    2.4855    1.2244   -1.2892 H   0  0  0  0  0  0  0  0  0  0  0  0
    0.0029    2.9608   -1.3510 H   0  0  0  0  0  0  0  0  0  0  0  0
   -2.3667    2.9255   -0.6382 H   0  0  0  0  0  0  0  0  0  0  0  0
   -3.3044    0.9914    0.5196 H   0  0  0  0  0  0  0  0  0  0  0  0
   -2.4593   -1.0522    2.2050 H   0  0  0  0  0  0  0  0  0  0  0  0
   -2.9146   -1.7583    0.6567 H   0  0  0  0  0  0  0  0  0  0  0  0
   -1.3229   -2.1062    1.3494 H   0  0  0  0  0  0  0  0  0  0  0  0
  1  2  1  0  0  0  0
  2  3  2  0  0  0  0
  3  4  1  0  0  0  0
  4  5  4  0  0  0  0
  5  6  4  0  0  0  0
  6  7  4  0  0  0  0
  7  8  4  0  0  0  0
  8  9  1  0  0  0  0
  4 10  4  0  0  0  0
  8 10  4  0  0  0  0
  2 11  1  0  0  0  0
 10 11  1  0  0  0  0
  1 12  1  0  0  0  0
  1 13  1  0  0  0  0
  1 14  1  0  0  0  0
  3 15  1  0  0  0  0
  5 16  1  0  0  0  0
  6 17  1  0  0  0  0
  7 18  1  0  0  0  0
  9 19  1  0  0  0  0
  9 20  1  0  0  0  0
  9 21  1  0  0  0  0
M  END
