 xtb: 6.7.1 (edcfbbe)
          07082614213D

 29 30  0     0  0            999 V2000
   -0.7149   -1.8465   -1.3563 O   0  0  0  0  0  0  0  0  0  0  0  0
   -0.8872   -0.4657   -1.1131 C   0  0  0  0  0  0  0  0  0  0  0  0
   -2.3669   -0.1430   -1.3075 C   0  0  0  0  0  0  0  0  0  0  0  0
   -2.6457    1.3310   -1.0377 C   0  0  0  0  0  0  0  0  0  0  0  0
   -2.2048    1.7082    0.3733 C   0  0  0  0  0  0  0  0  0  0  0  0
   -0.7233    1.4012    0.5657 C   0  0  0  0  0  0  0  0  0  0  0  0
   -0.4424   -0.0834    0.3125 C   0  0  0  0  0  0  0  0  0  0  0  0
    1.0091   -0.4286    0.5285 C   0  0  0  0  0  0  0  0  0  0  0  0
    2.0165    0.1891   -0.2059 C   0  0  0  0  0  0  0  0  0  0  0  0
    3.3432   -0.1506   -0.0120 C   0  0  0  0  0  0  0  0  0  0  0  0
    3.6873   -1.1158    0.9191 C   0  0  0  0  0  0  0  0  0  0  0  0
    2.6946   -1.7395    1.6542 C   0  0  0  0  0  0  0  0  0  0  0  0
    1.3678   -1.3987    1.4575 C   0  0  0  0  0  0  0  0  0  0  0  0
    0.1933   -2.0843   -1.1356 H   0  0  0  0  0  0  0  0  0  0  0  0
   -0.2928    0.1126   -1.8408 H   0  0  0  0  0  0  0  0  0  0  0  0
   -2.6523   -0.4113   -2.3254 H   0  0  0  0  0  0  0  0  0  0  0  0
   -2.9449   -0.7682   -0.6248 H   0  0  0  0  0  0  0  0  0  0  0  0
   -3.7113    1.5310   -1.1627 H   0  0  0  0  0  0  0  0  0  0  0  0
   -2.1029    1.9422   -1.7627 H   0  0  0  0  0  0  0  0  0  0  0  0
   -2.7913    1.1418    1.1001 H   0  0  0  0  0  0  0  0  0  0  0  0
   -2.3872    2.7701    0.5503 H   0  0  0  0  0  0  0  0  0  0  0  0
   -0.1369    2.0094   -0.1256 H   0  0  0  0  0  0  0  0  0  0  0  0
   -0.4130    1.6573    1.5811 H   0  0  0  0  0  0  0  0  0  0  0  0
   -1.0467   -0.6756    1.0089 H   0  0  0  0  0  0  0  0  0  0  0  0
    1.7660    0.9432   -0.9376 H   0  0  0  0  0  0  0  0  0  0  0  0
    4.1122    0.3403   -0.5906 H   0  0  0  0  0  0  0  0  0  0  0  0
    4.7234   -1.3797    1.0703 H   0  0  0  0  0  0  0  0  0  0  0  0
    2.9528   -2.4941    2.3827 H   0  0  0  0  0  0  0  0  0  0  0  0
    0.5982   -1.8925    2.0342 H   0  0  0  0  0  0  0  0  0  0  0  0
  1  2  1  0  0  0  0
  2  3  1  0  0  0  0
  3  4  1  0  0  0  0
  4  5  1  0  0  0  0
  5  6  1  0  0  0  0
  2  7  1  0  0  0  0
  6  7  1  0  0  0  0
  7  8  1  0  0  0  0
  8  9  4  0  0  0  0
  9 10  4  0  0  0  0
 10 11  4  0  0  0  0
 11 12  4  0  0  0  0
  8 13  4  0  0  0  0
 12 13  4  0  0  0  0
  1 14  1  0  0  0  0
  2 15  1  0  0  0  0
  3 16  1  0  0  0  0
  3 17  1  0  0  0  0
  4 18  1  0  0  0  0
  4 19  1  0  0  0  0
  5 20  1  0  0  0  0
  5 21  1  0  0  0  0
  6 22  1  0  0  0  0
  6 23  1  0  0  0  0
  7 24  1  0  0  0  0
  9 25  1  0  0  0  0
 10 26  1  0  0  0  0
 11 27  1  0  0  0  0
 12 28  1  0  0  0  0
 13 29  1  0  0  0  0
M  END
