 xtb: 6.7.1 (edcfbbe)
          07062622533D

 39 38  0     0  0            999 V2000
    5.6162    0.3344    0.4416 C   0  0  0  0  0  0  0  0  0  0  0  0
    4.5270   -0.4090   -0.3206 C   0  0  0  0  0  0  0  0  0  0  0  0
    3.1206    0.0323    0.0823 C   0  0  0  0  0  0  0  0  0  0  0  0
    2.7416   -0.3601    1.5054 C   0  0  0  0  0  0  0  0  0  0  0  0
    2.2063   -0.6071   -0.8260 O   0  0  0  0  0  0  0  0  0  0  0  0
    1.0830    0.0329   -1.1222 C   0  0  0  0  0  0  0  0  0  0  0  0
    0.8143    1.1532   -0.7665 O   0  0  0  0  0  0  0  0  0  0  0  0
    0.1833   -0.8166   -1.9997 C   0  0  0  0  0  0  0  0  0  0  0  0
   -1.2652   -0.4096   -1.7472 C   0  0  0  0  0  0  0  0  0  0  0  0
   -1.5868   -0.6316   -0.2716 C   0  0  0  0  0  0  0  0  0  0  0  0
   -0.8729   -1.3233    0.4322 O   0  0  0  0  0  0  0  0  0  0  0  0
   -2.7077   -0.0469    0.2088 N   0  0  0  0  0  0  0  0  0  0  0  0
   -3.5481    0.8650   -0.5363 C   0  0  0  0  0  0  0  0  0  0  0  0
   -3.0594    2.3107   -0.4265 C   0  0  0  0  0  0  0  0  0  0  0  0
   -3.0354   -0.2371    1.6113 C   0  0  0  0  0  0  0  0  0  0  0  0
   -4.0819   -1.3313    1.8019 C   0  0  0  0  0  0  0  0  0  0  0  0
    6.5951    0.0472    0.0658 H   0  0  0  0  0  0  0  0  0  0  0  0
    5.5779    0.1022    1.5022 H   0  0  0  0  0  0  0  0  0  0  0  0
    5.5026    1.4092    0.3187 H   0  0  0  0  0  0  0  0  0  0  0  0
    4.6443   -0.2290   -1.3914 H   0  0  0  0  0  0  0  0  0  0  0  0
    4.6173   -1.4834   -0.1524 H   0  0  0  0  0  0  0  0  0  0  0  0
    3.0124    1.1183   -0.0416 H   0  0  0  0  0  0  0  0  0  0  0  0
    3.3294    0.2025    2.2243 H   0  0  0  0  0  0  0  0  0  0  0  0
    2.9043   -1.4246    1.6548 H   0  0  0  0  0  0  0  0  0  0  0  0
    1.6876   -0.1475    1.6683 H   0  0  0  0  0  0  0  0  0  0  0  0
    0.3507   -1.8628   -1.7486 H   0  0  0  0  0  0  0  0  0  0  0  0
    0.4542   -0.6519   -3.0444 H   0  0  0  0  0  0  0  0  0  0  0  0
   -1.9438   -1.0095   -2.3574 H   0  0  0  0  0  0  0  0  0  0  0  0
   -1.3824    0.6413   -2.0052 H   0  0  0  0  0  0  0  0  0  0  0  0
   -4.5617    0.7905   -0.1328 H   0  0  0  0  0  0  0  0  0  0  0  0
   -3.5892    0.5583   -1.5828 H   0  0  0  0  0  0  0  0  0  0  0  0
   -3.6613    2.9580   -1.0589 H   0  0  0  0  0  0  0  0  0  0  0  0
   -3.1359    2.6613    0.5997 H   0  0  0  0  0  0  0  0  0  0  0  0
   -2.0179    2.3874   -0.7284 H   0  0  0  0  0  0  0  0  0  0  0  0
   -3.3933    0.7100    2.0224 H   0  0  0  0  0  0  0  0  0  0  0  0
   -2.1142   -0.5221    2.1237 H   0  0  0  0  0  0  0  0  0  0  0  0
   -3.7017   -2.2742    1.4179 H   0  0  0  0  0  0  0  0  0  0  0  0
   -4.3058   -1.4496    2.8586 H   0  0  0  0  0  0  0  0  0  0  0  0
   -5.0035   -1.0874    1.2772 H   0  0  0  0  0  0  0  0  0  0  0  0
  1  2  1  0  0  0  0
  2  3  1  0  0  0  0
  3  4  1  0  0  0  0
  3  5  1  0  0  0  0
  5  6  1  0  0  0  0
  6  7  2  0  0  0  0
  6  8  1  0  0  0  0
  8  9  1  0  0  0  0
  9 10  1  0  0  0  0
 10 11  2  0  0  0  0
 10 12  4  0  0  0  0
 12 13  1  0  0  0  0
 13 14  1  0  0  0  0
 12 15  1  0  0  0  0
 15 16  1  0  0  0  0
  1 17  1  0  0  0  0
  1 18  1  0  0  0  0
  1 19  1  0  0  0  0
  2 20  1  0  0  0  0
  2 21  1  0  0  0  0
  3 22  1  0  0  0  0
  4 23  1  0  0  0  0
  4 24  1  0  0  0  0
  4 25  1  0  0  0  0
  8 26  1  0  0  0  0
  8 27  1  0  0  0  0
  9 28  1  0  0  0  0
  9 29  1  0  0  0  0
 13 30  1  0  0  0  0
 13 31  1  0  0  0  0
 14 32  1  0  0  0  0
 14 33  1  0  0  0  0
 14 34  1  0  0  0  0
 15 35  1  0  0  0  0
 15 36  1  0  0  0  0
 16 37  1  0  0  0  0
 16 38  1  0  0  0  0
 16 39  1  0  0  0  0
M  END
