 xtb: 6.7.1 (edcfbbe)
          07072608043D

 44 44  0     0  0            999 V2000
   -2.9288    0.9246   -2.1732 C   0  0  0  0  0  0  0  0  0  0  0  0
   -2.9045    0.6397   -0.6717 C   0  0  0  0  0  0  0  0  0  0  0  0
   -2.8655    1.9346    0.1401 C   0  0  0  0  0  0  0  0  0  0  0  0
   -1.7952   -0.2519   -0.3057 N   0  0  0  0  0  0  0  0  0  0  0  0
   -0.5260    0.1841   -0.4735 C   0  0  0  0  0  0  0  0  0  0  0  0
   -0.2867    1.2636   -0.9983 O   0  0  0  0  0  0  0  0  0  0  0  0
    0.6061   -0.7159    0.0077 C   0  0  0  0  0  0  0  0  0  0  0  0
    1.9873   -0.0122   -0.0174 C   0  0  0  0  0  0  0  0  0  0  0  0
    2.2712    0.4599   -1.3125 O   0  0  0  0  0  0  0  0  0  0  0  0
    3.0722   -1.0380    0.3453 C   0  0  0  0  0  0  0  0  0  0  0  0
    4.4459   -0.3785    0.4138 C   0  0  0  0  0  0  0  0  0  0  0  0
    4.4503    0.7508    1.4378 C   0  0  0  0  0  0  0  0  0  0  0  0
    3.3894    1.7815    1.0691 C   0  0  0  0  0  0  0  0  0  0  0  0
    2.0106    1.1317    1.0137 C   0  0  0  0  0  0  0  0  0  0  0  0
   -2.1479   -1.5637    0.2223 C   0  0  0  0  0  0  0  0  0  0  0  0
   -2.9884   -2.3675   -0.7742 C   0  0  0  0  0  0  0  0  0  0  0  0
   -2.8426   -1.4482    1.5817 C   0  0  0  0  0  0  0  0  0  0  0  0
   -3.8100    1.5122   -2.4178 H   0  0  0  0  0  0  0  0  0  0  0  0
   -2.0435    1.4814   -2.4624 H   0  0  0  0  0  0  0  0  0  0  0  0
   -2.9606   -0.0042   -2.7377 H   0  0  0  0  0  0  0  0  0  0  0  0
   -3.8233    0.1096   -0.4106 H   0  0  0  0  0  0  0  0  0  0  0  0
   -1.9928    2.5213   -0.1277 H   0  0  0  0  0  0  0  0  0  0  0  0
   -3.7582    2.5197   -0.0654 H   0  0  0  0  0  0  0  0  0  0  0  0
   -2.8288    1.7145    1.2049 H   0  0  0  0  0  0  0  0  0  0  0  0
    0.6600   -1.5843   -0.6550 H   0  0  0  0  0  0  0  0  0  0  0  0
    0.4129   -1.0551    1.0260 H   0  0  0  0  0  0  0  0  0  0  0  0
    1.5404    1.0589   -1.5407 H   0  0  0  0  0  0  0  0  0  0  0  0
    2.8279   -1.4909    1.3088 H   0  0  0  0  0  0  0  0  0  0  0  0
    3.0813   -1.8215   -0.4146 H   0  0  0  0  0  0  0  0  0  0  0  0
    4.6829    0.0261   -0.5708 H   0  0  0  0  0  0  0  0  0  0  0  0
    5.1988   -1.1271    0.6702 H   0  0  0  0  0  0  0  0  0  0  0  0
    5.4347    1.2222    1.4683 H   0  0  0  0  0  0  0  0  0  0  0  0
    4.2397    0.3466    2.4319 H   0  0  0  0  0  0  0  0  0  0  0  0
    3.6214    2.1980    0.0874 H   0  0  0  0  0  0  0  0  0  0  0  0
    3.3825    2.5976    1.7949 H   0  0  0  0  0  0  0  0  0  0  0  0
    1.7523    0.7295    1.9965 H   0  0  0  0  0  0  0  0  0  0  0  0
    1.2619    1.8768    0.7397 H   0  0  0  0  0  0  0  0  0  0  0  0
   -1.2221   -2.1201    0.3688 H   0  0  0  0  0  0  0  0  0  0  0  0
   -2.4923   -2.3982   -1.7412 H   0  0  0  0  0  0  0  0  0  0  0  0
   -3.0982   -3.3862   -0.4110 H   0  0  0  0  0  0  0  0  0  0  0  0
   -3.9815   -1.9472   -0.9058 H   0  0  0  0  0  0  0  0  0  0  0  0
   -2.9936   -2.4396    2.0010 H   0  0  0  0  0  0  0  0  0  0  0  0
   -3.8114   -0.9634    1.4964 H   0  0  0  0  0  0  0  0  0  0  0  0
   -2.2275   -0.8713    2.2686 H   0  0  0  0  0  0  0  0  0  0  0  0
  1  2  1  0  0  0  0
  2  3  1  0  0  0  0
  2  4  1  0  0  0  0
  4  5  4  0  0  0  0
  5  6  2  0  0  0  0
  5  7  1  0  0  0  0
  7  8  1  0  0  0  0
  8  9  1  0  0  0  0
  8 10  1  0  0  0  0
 10 11  1  0  0  0  0
 11 12  1  0  0  0  0
 12 13  1  0  0  0  0
  8 14  1  0  0  0  0
 13 14  1  0  0  0  0
  4 15  1  0  0  0  0
 15 16  1  0  0  0  0
 15 17  1  0  0  0  0
  1 18  1  0  0  0  0
  1 19  1  0  0  0  0
  1 20  1  0  0  0  0
  2 21  1  0  0  0  0
  3 22  1  0  0  0  0
  3 23  1  0  0  0  0
  3 24  1  0  0  0  0
  7 25  1  0  0  0  0
  7 26  1  0  0  0  0
  9 27  1  0  0  0  0
 10 28  1  0  0  0  0
 10 29  1  0  0  0  0
 11 30  1  0  0  0  0
 11 31  1  0  0  0  0
 12 32  1  0  0  0  0
 12 33  1  0  0  0  0
 13 34  1  0  0  0  0
 13 35  1  0  0  0  0
 14 36  1  0  0  0  0
 14 37  1  0  0  0  0
 15 38  1  0  0  0  0
 16 39  1  0  0  0  0
 16 40  1  0  0  0  0
 16 41  1  0  0  0  0
 17 42  1  0  0  0  0
 17 43  1  0  0  0  0
 17 44  1  0  0  0  0
M  END
