 xtb: 6.7.1 (edcfbbe)
          07092611383D

 29 29  0     0  0            999 V2000
   -2.9851    1.2350    0.3144 C   0  0  0  0  0  0  0  0  0  0  0  0
   -2.2086   -0.0654    0.5102 C   0  0  0  0  0  0  0  0  0  0  0  0
   -2.5738   -1.0721   -0.5782 C   0  0  0  0  0  0  0  0  0  0  0  0
   -0.6937    0.1975    0.5985 C   0  0  0  0  0  0  0  0  0  0  0  0
   -0.0237    0.5321   -0.7417 C   0  0  0  0  0  0  0  0  0  0  0  0
    1.4555    0.8457   -0.5485 C   0  0  0  0  0  0  0  0  0  0  0  0
    2.1854   -0.3533    0.0530 C   0  0  0  0  0  0  0  0  0  0  0  0
    3.6702   -0.0620    0.2487 C   0  0  0  0  0  0  0  0  0  0  0  0
    1.5316   -0.7292    1.3881 C   0  0  0  0  0  0  0  0  0  0  0  0
    0.0474   -0.9689    1.2270 C   0  0  0  0  0  0  0  0  0  0  0  0
   -0.4832   -1.9927    1.5780 O   0  0  0  0  0  0  0  0  0  0  0  0
   -4.0541    1.0372    0.3355 H   0  0  0  0  0  0  0  0  0  0  0  0
   -2.7557    1.9490    1.1028 H   0  0  0  0  0  0  0  0  0  0  0  0
   -2.7465    1.6903   -0.6443 H   0  0  0  0  0  0  0  0  0  0  0  0
   -2.5018   -0.4989    1.4732 H   0  0  0  0  0  0  0  0  0  0  0  0
   -1.9907   -1.9816   -0.4631 H   0  0  0  0  0  0  0  0  0  0  0  0
   -2.4027   -0.6591   -1.5696 H   0  0  0  0  0  0  0  0  0  0  0  0
   -3.6268   -1.3325   -0.4987 H   0  0  0  0  0  0  0  0  0  0  0  0
   -0.5413    1.0537    1.2685 H   0  0  0  0  0  0  0  0  0  0  0  0
   -0.1209   -0.3171   -1.4195 H   0  0  0  0  0  0  0  0  0  0  0  0
   -0.5271    1.3876   -1.1945 H   0  0  0  0  0  0  0  0  0  0  0  0
    1.5692    1.7101    0.1107 H   0  0  0  0  0  0  0  0  0  0  0  0
    1.9031    1.1006   -1.5116 H   0  0  0  0  0  0  0  0  0  0  0  0
    2.0831   -1.2035   -0.6309 H   0  0  0  0  0  0  0  0  0  0  0  0
    4.1769   -0.9244    0.6753 H   0  0  0  0  0  0  0  0  0  0  0  0
    4.1395    0.1751   -0.7034 H   0  0  0  0  0  0  0  0  0  0  0  0
    3.8080    0.7838    0.9192 H   0  0  0  0  0  0  0  0  0  0  0  0
    1.9933   -1.6273    1.8025 H   0  0  0  0  0  0  0  0  0  0  0  0
    1.6724    0.0903    2.0977 H   0  0  0  0  0  0  0  0  0  0  0  0
  1  2  1  0  0  0  0
  2  3  1  0  0  0  0
  2  4  1  0  0  0  0
  4  5  1  0  0  0  0
  5  6  1  0  0  0  0
  6  7  1  0  0  0  0
  7  8  1  0  0  0  0
  7  9  1  0  0  0  0
  4 10  1  0  0  0  0
  9 10  1  0  0  0  0
 10 11  2  0  0  0  0
  1 12  1  0  0  0  0
  1 13  1  0  0  0  0
  1 14  1  0  0  0  0
  2 15  1  0  0  0  0
  3 16  1  0  0  0  0
  3 17  1  0  0  0  0
  3 18  1  0  0  0  0
  4 19  1  0  0  0  0
  5 20  1  0  0  0  0
  5 21  1  0  0  0  0
  6 22  1  0  0  0  0
  6 23  1  0  0  0  0
  7 24  1  0  0  0  0
  8 25  1  0  0  0  0
  8 26  1  0  0  0  0
  8 27  1  0  0  0  0
  9 28  1  0  0  0  0
  9 29  1  0  0  0  0
M  END
